3
* (null), Energy   -1000.0000000
O    -3.939131   -0.058102    0.018504   -0.098127   -0.094231    0.030011
H    -2.983028    0.049039   -0.015618    1.397360    0.156438   -0.049823
H    -4.047991   -0.969487    0.308764    0.160116    1.339205   -0.426512
3
* Frequency(8) 3966.3252
O    -3.950283   -0.068811    0.021915   -0.098127   -0.094231    0.030011
H    -2.824225    0.066817   -0.021280    1.397360    0.156438   -0.049823
H    -4.029794   -0.817293    0.260293    0.160116    1.339205   -0.426512
3
* Frequency(8) 3966.3252
O    -3.960226   -0.078359    0.024956   -0.098127   -0.094231    0.030011
H    -2.682631    0.082669   -0.026329    1.397360    0.156438   -0.049823
H    -4.013570   -0.681592    0.217074    0.160116    1.339205   -0.426512
3
* Frequency(8) 3966.3252
O    -3.967884   -0.085712    0.027298   -0.098127   -0.094231    0.030011
H    -2.573590    0.094876   -0.030216    1.397360    0.156438   -0.049823
H    -4.001075   -0.577089    0.183792    0.160116    1.339205   -0.426512
3
* Frequency(8) 3966.3252
O    -3.972425   -0.090074    0.028687   -0.098127   -0.094231    0.030011
H    -2.508917    0.102117   -0.032522    1.397360    0.156438   -0.049823
H    -3.993665   -0.515108    0.164052    0.160116    1.339205   -0.426512
3
* Frequency(8) 3966.3252
O    -3.973359   -0.090970    0.028972   -0.098127   -0.094231    0.030011
H    -2.495622    0.103605   -0.032996    1.397360    0.156438   -0.049823
H    -3.992141   -0.502366    0.159994    0.160116    1.339205   -0.426512
3
* Frequency(8) 3966.3252
O    -3.970583   -0.088305    0.028123   -0.098127   -0.094231    0.030011
H    -2.535145    0.099180   -0.031587    1.397360    0.156438   -0.049823
H    -3.996670   -0.540244    0.172058    0.160116    1.339205   -0.426512
3
* Frequency(8) 3966.3252
O    -3.964400   -0.082367    0.026232   -0.098127   -0.094231    0.030011
H    -2.623203    0.089322   -0.028447    1.397360    0.156438   -0.049823
H    -4.006760   -0.624637    0.198935    0.160116    1.339205   -0.426512
3
* Frequency(8) 3966.3252
O    -3.955478   -0.073799    0.023504   -0.098127   -0.094231    0.030011
H    -2.750253    0.075098   -0.023917    1.397360    0.156438   -0.049823
H    -4.021318   -0.746400    0.237715    0.160116    1.339205   -0.426512
3
* Frequency(8) 3966.3252
O    -3.944784   -0.063530    0.020233   -0.098127   -0.094231    0.030011
H    -2.902529    0.058051   -0.018488    1.397360    0.156438   -0.049823
H    -4.038767   -0.892338    0.284193    0.160116    1.339205   -0.426512
3
* Frequency(8) 3966.3252
O    -3.933479   -0.052673    0.016775   -0.098127   -0.094231    0.030011
H    -3.063527    0.040027   -0.012748    1.397360    0.156438   -0.049823
H    -4.057215   -1.046636    0.333334    0.160116    1.339205   -0.426512
3
* Frequency(8) 3966.3252
O    -3.922785   -0.042405    0.013505   -0.098127   -0.094231    0.030011
H    -3.215803    0.022979   -0.007318    1.397360    0.156438   -0.049823
H    -4.074663   -1.192574    0.379813    0.160116    1.339205   -0.426512
3
* Frequency(8) 3966.3252
O    -3.913863   -0.033837    0.010776   -0.098127   -0.094231    0.030011
H    -3.342853    0.008755   -0.002788    1.397360    0.156438   -0.049823
H    -4.089221   -1.314337    0.418592    0.160116    1.339205   -0.426512
3
* Frequency(8) 3966.3252
O    -3.907680   -0.027899    0.008885   -0.098127   -0.094231    0.030011
H    -3.430911   -0.001103    0.000351    1.397360    0.156438   -0.049823
H    -4.099311   -1.398730    0.445469    0.160116    1.339205   -0.426512
3
* Frequency(8) 3966.3252
O    -3.904904   -0.025233    0.008036   -0.098127   -0.094231    0.030011
H    -3.470434   -0.005528    0.001760    1.397360    0.156438   -0.049823
H    -4.103840   -1.436608    0.457533    0.160116    1.339205   -0.426512
3
* Frequency(8) 3966.3252
O    -3.905838   -0.026130    0.008322   -0.098127   -0.094231    0.030011
H    -3.457139   -0.004039    0.001286    1.397360    0.156438   -0.049823
H    -4.102316   -1.423866    0.453475    0.160116    1.339205   -0.426512
3
* Frequency(8) 3966.3252
O    -3.910379   -0.030491    0.009711   -0.098127   -0.094231    0.030011
H    -3.392466    0.003201   -0.001019    1.397360    0.156438   -0.049823
H    -4.094906   -1.361885    0.433735    0.160116    1.339205   -0.426512
3
* Frequency(8) 3966.3252
O    -3.918037   -0.037844    0.012053   -0.098127   -0.094231    0.030011
H    -3.283425    0.015409   -0.004907    1.397360    0.156438   -0.049823
H    -4.082411   -1.257382    0.400453    0.160116    1.339205   -0.426512
3
* Frequency(8) 3966.3252
O    -3.927980   -0.047393    0.015094   -0.098127   -0.094231    0.030011
H    -3.141831    0.031260   -0.009956    1.397360    0.156438   -0.049823
H    -4.066187   -1.121681    0.357234    0.160116    1.339205   -0.426512
3
* Frequency(8) 3966.3252
O    -3.939131   -0.058102    0.018504   -0.098127   -0.094231    0.030011
H    -2.983028    0.049039   -0.015618    1.397360    0.156438   -0.049823
H    -4.047991   -0.969487    0.308764    0.160116    1.339205   -0.426512
