3
* (null), Energy   -1000.0000000
O    -3.939131   -0.058102    0.018504   -0.072062    0.067918   -0.021631
H    -2.983028    0.049039   -0.015618    1.392888    0.243131   -0.077433
H    -4.047991   -0.969487    0.308764   -0.249116   -1.321131    0.420756
3
* Frequency(7) 3866.4297
O    -3.947321   -0.050383    0.016046   -0.072062    0.067918   -0.021631
H    -2.824733    0.076669   -0.024418    1.392888    0.243131   -0.077433
H    -4.076301   -1.119627    0.356580   -0.249116   -1.321131    0.420756
3
* Frequency(7) 3866.4297
O    -3.954623   -0.043501    0.013854   -0.072062    0.067918   -0.021631
H    -2.683593    0.101306   -0.032264    1.392888    0.243131   -0.077433
H    -4.101544   -1.253496    0.399215   -0.249116   -1.321131    0.420756
3
* Frequency(7) 3866.4297
O    -3.960246   -0.038201    0.012166   -0.072062    0.067918   -0.021631
H    -2.574900    0.120278   -0.038306    1.392888    0.243131   -0.077433
H    -4.120984   -1.356589    0.432048   -0.249116   -1.321131    0.420756
3
* Frequency(7) 3866.4297
O    -3.963581   -0.035058    0.011165   -0.072062    0.067918   -0.021631
H    -2.510435    0.131531   -0.041890    1.392888    0.243131   -0.077433
H    -4.132513   -1.417734    0.451522   -0.249116   -1.321131    0.420756
3
* Frequency(7) 3866.4297
O    -3.964267   -0.034412    0.010959   -0.072062    0.067918   -0.021631
H    -2.497182    0.133844   -0.042627    1.392888    0.243131   -0.077433
H    -4.134883   -1.430303    0.455525   -0.249116   -1.321131    0.420756
3
* Frequency(7) 3866.4297
O    -3.962229   -0.036333    0.011571   -0.072062    0.067918   -0.021631
H    -2.536579    0.126967   -0.040437    1.392888    0.243131   -0.077433
H    -4.127837   -1.392937    0.443624   -0.249116   -1.321131    0.420756
3
* Frequency(7) 3866.4297
O    -3.957688   -0.040613    0.012934   -0.072062    0.067918   -0.021631
H    -2.624355    0.111646   -0.035557    1.392888    0.243131   -0.077433
H    -4.112139   -1.309683    0.417110   -0.249116   -1.321131    0.420756
3
* Frequency(7) 3866.4297
O    -3.951136   -0.046788    0.014901   -0.072062    0.067918   -0.021631
H    -2.750998    0.089540   -0.028517    1.392888    0.243131   -0.077433
H    -4.089489   -1.189563    0.378854   -0.249116   -1.321131    0.420756
3
* Frequency(7) 3866.4297
O    -3.943283   -0.054189    0.017258   -0.072062    0.067918   -0.021631
H    -2.902786    0.063045   -0.020079    1.392888    0.243131   -0.077433
H    -4.062342   -1.045595    0.333003   -0.249116   -1.321131    0.420756
3
* Frequency(7) 3866.4297
O    -3.934980   -0.062014    0.019750   -0.072062    0.067918   -0.021631
H    -3.063270    0.035032   -0.011157    1.392888    0.243131   -0.077433
H    -4.033639   -0.893379    0.284525   -0.249116   -1.321131    0.420756
3
* Frequency(7) 3866.4297
O    -3.927127   -0.069416    0.022108   -0.072062    0.067918   -0.021631
H    -3.215057    0.008538   -0.002719    1.392888    0.243131   -0.077433
H    -4.006492   -0.749411    0.238673   -0.249116   -1.321131    0.420756
3
* Frequency(7) 3866.4297
O    -3.920575   -0.075591    0.024074   -0.072062    0.067918   -0.021631
H    -3.341701   -0.013568    0.004321    1.392888    0.243131   -0.077433
H    -3.983842   -0.629291    0.200418   -0.249116   -1.321131    0.420756
3
* Frequency(7) 3866.4297
O    -3.916034   -0.079871    0.025437   -0.072062    0.067918   -0.021631
H    -3.429477   -0.028890    0.009201    1.392888    0.243131   -0.077433
H    -3.968144   -0.546037    0.173903   -0.249116   -1.321131    0.420756
3
* Frequency(7) 3866.4297
O    -3.913996   -0.081792    0.026049   -0.072062    0.067918   -0.021631
H    -3.468874   -0.035766    0.011391    1.392888    0.243131   -0.077433
H    -3.961098   -0.508670    0.162002   -0.249116   -1.321131    0.420756
3
* Frequency(7) 3866.4297
O    -3.914681   -0.081146    0.025843   -0.072062    0.067918   -0.021631
H    -3.455621   -0.033453    0.010654    1.392888    0.243131   -0.077433
H    -3.963468   -0.521240    0.166005   -0.249116   -1.321131    0.420756
3
* Frequency(7) 3866.4297
O    -3.918017   -0.078002    0.024842   -0.072062    0.067918   -0.021631
H    -3.391156   -0.022201    0.007070    1.392888    0.243131   -0.077433
H    -3.974998   -0.582385    0.185479   -0.249116   -1.321131    0.420756
3
* Frequency(7) 3866.4297
O    -3.923640   -0.072703    0.023154   -0.072062    0.067918   -0.021631
H    -3.282463   -0.003228    0.001028    1.392888    0.243131   -0.077433
H    -3.994437   -0.685478    0.218312   -0.249116   -1.321131    0.420756
3
* Frequency(7) 3866.4297
O    -3.930942   -0.065820    0.020963   -0.072062    0.067918   -0.021631
H    -3.141322    0.021408   -0.006818    1.392888    0.243131   -0.077433
H    -4.019680   -0.819347    0.260947   -0.249116   -1.321131    0.420756
3
* Frequency(7) 3866.4297
O    -3.939131   -0.058102    0.018504   -0.072062    0.067918   -0.021631
H    -2.983028    0.049039   -0.015618    1.392888    0.243131   -0.077433
H    -4.047991   -0.969487    0.308764   -0.249116   -1.321131    0.420756
