8
* (null), Energy   -1000.0000000
C    -8.211736    1.728101   -0.008013   -0.505998   -0.154442   -0.014456
C    -6.782866    2.213722    0.039075   -0.252964   -0.066364   -0.003914
H    -8.277104    0.642209   -0.150979   -0.302700   -0.174706   -0.021147
H    -8.734844    2.246734   -0.825990   -0.603443   -0.302635   -0.049016
H    -8.713867    2.014836    0.929061   -0.607426   -0.308864   -0.019027
O    -6.446204    3.361473    0.189749    0.527621   -0.279533   -0.045226
O    -5.892435    1.209722   -0.107978    0.156052    0.407277    0.052577
H    -5.009163    1.617144   -0.064925   -0.294166    1.389717    0.191391
8
* Frequency(9)  590.2984
C    -8.269240    1.710549   -0.009656   -0.505998   -0.154442   -0.014456
C    -6.811614    2.206180    0.038630   -0.252964   -0.066364   -0.003914
H    -8.311505    0.622354   -0.153382   -0.302700   -0.174706   -0.021147
H    -8.803422    2.212341   -0.831560   -0.603443   -0.302635   -0.049016
H    -8.782898    1.979735    0.926899   -0.607426   -0.308864   -0.019027
O    -6.386243    3.329705    0.184609    0.527621   -0.279533   -0.045226
O    -5.874701    1.256007   -0.102003    0.156052    0.407277    0.052577
H    -5.042594    1.775078   -0.043175   -0.294166    1.389717    0.191391
8
* Frequency(9)  590.2984
C    -8.320513    1.694900   -0.011121   -0.505998   -0.154442   -0.014456
C    -6.837246    2.199455    0.038234   -0.252964   -0.066364   -0.003914
H    -8.342177    0.604652   -0.155525   -0.302700   -0.174706   -0.021147
H    -8.864568    2.181675   -0.836527   -0.603443   -0.302635   -0.049016
H    -8.844448    1.948438    0.924971   -0.607426   -0.308864   -0.019027
O    -6.332779    3.301380    0.180027    0.527621   -0.279533   -0.045226
O    -5.858888    1.297276   -0.096676    0.156052    0.407277    0.052577
H    -5.072402    1.915898   -0.023781   -0.294166    1.389717    0.191391
8
* Frequency(9)  590.2984
C    -8.359998    1.682848   -0.012249   -0.505998   -0.154442   -0.014456
C    -6.856986    2.194277    0.037928   -0.252964   -0.066364   -0.003914
H    -8.365798    0.591019   -0.157175   -0.302700   -0.174706   -0.021147
H    -8.911657    2.158059   -0.840352   -0.603443   -0.302635   -0.049016
H    -8.891848    1.924336    0.923487   -0.607426   -0.308864   -0.019027
O    -6.291607    3.279567    0.176498    0.527621   -0.279533   -0.045226
O    -5.846711    1.329057   -0.092573    0.156052    0.407277    0.052577
H    -5.095357    2.024343   -0.008846   -0.294166    1.389717    0.191391
8
* Frequency(9)  590.2984
C    -8.383417    1.675700   -0.012918   -0.505998   -0.154442   -0.014456
C    -6.868694    2.191205    0.037747   -0.252964   -0.066364   -0.003914
H    -8.379807    0.582933   -0.158154   -0.302700   -0.174706   -0.021147
H    -8.939586    2.144053   -0.842621   -0.603443   -0.302635   -0.049016
H    -8.919961    1.910041    0.922606   -0.607426   -0.308864   -0.019027
O    -6.267187    3.266630    0.174404    0.527621   -0.279533   -0.045226
O    -5.839488    1.347907   -0.090139    0.156052    0.407277    0.052577
H    -5.108971    2.088661    0.000012   -0.294166    1.389717    0.191391
8
* Frequency(9)  590.2984
C    -8.388231    1.674231   -0.013055   -0.505998   -0.154442   -0.014456
C    -6.871101    2.190574    0.037710   -0.252964   -0.066364   -0.003914
H    -8.382687    0.581271   -0.158355   -0.302700   -0.174706   -0.021147
H    -8.945327    2.141173   -0.843087   -0.603443   -0.302635   -0.049016
H    -8.925740    1.907103    0.922425   -0.607426   -0.308864   -0.019027
O    -6.262167    3.263970    0.173974    0.527621   -0.279533   -0.045226
O    -5.838004    1.351782   -0.089639    0.156052    0.407277    0.052577
H    -5.111770    2.101884    0.001833   -0.294166    1.389717    0.191391
8
* Frequency(9)  590.2984
C    -8.373919    1.678599   -0.012647   -0.505998   -0.154442   -0.014456
C    -6.863946    2.192451    0.037820   -0.252964   -0.066364   -0.003914
H    -8.374126    0.586212   -0.157757   -0.302700   -0.174706   -0.021147
H    -8.928260    2.149733   -0.841701   -0.603443   -0.302635   -0.049016
H    -8.908560    1.915838    0.922963   -0.607426   -0.308864   -0.019027
O    -6.277091    3.271876    0.175253    0.527621   -0.279533   -0.045226
O    -5.842417    1.340262   -0.091126    0.156052    0.407277    0.052577
H    -5.103450    2.062577   -0.003581   -0.294166    1.389717    0.191391
8
* Frequency(9)  590.2984
C    -8.342033    1.688331   -0.011736   -0.505998   -0.154442   -0.014456
C    -6.848005    2.196633    0.038067   -0.252964   -0.066364   -0.003914
H    -8.355051    0.597221   -0.156424   -0.302700   -0.174706   -0.021147
H    -8.890232    2.168804   -0.838612   -0.603443   -0.302635   -0.049016
H    -8.870281    1.935302    0.924162   -0.607426   -0.308864   -0.019027
O    -6.310340    3.289492    0.178103    0.527621   -0.279533   -0.045226
O    -5.852251    1.314597   -0.094439    0.156052    0.407277    0.052577
H    -5.084912    1.975001   -0.015641   -0.294166    1.389717    0.191391
8
* Frequency(9)  590.2984
C    -8.296026    1.702374   -0.010421   -0.505998   -0.154442   -0.014456
C    -6.825005    2.202667    0.038423   -0.252964   -0.066364   -0.003914
H    -8.327529    0.613106   -0.154502   -0.302700   -0.174706   -0.021147
H    -8.835366    2.196320   -0.834155   -0.603443   -0.302635   -0.049016
H    -8.815053    1.963385    0.925892   -0.607426   -0.308864   -0.019027
O    -6.358312    3.314908    0.182215    0.527621   -0.279533   -0.045226
O    -5.866440    1.277567   -0.099220    0.156052    0.407277    0.052577
H    -5.058166    1.848645   -0.033043   -0.294166    1.389717    0.191391
8
* Frequency(9)  590.2984
C    -8.240886    1.719204   -0.008846   -0.505998   -0.154442   -0.014456
C    -6.797438    2.209899    0.038849   -0.252964   -0.066364   -0.003914
H    -8.294542    0.632144   -0.152197   -0.302700   -0.174706   -0.021147
H    -8.769607    2.229300   -0.828814   -0.603443   -0.302635   -0.049016
H    -8.748860    1.997043    0.927965   -0.607426   -0.308864   -0.019027
O    -6.415809    3.345369    0.187144    0.527621   -0.279533   -0.045226
O    -5.883446    1.233184   -0.104949    0.156052    0.407277    0.052577
H    -5.026110    1.697203   -0.053899   -0.294166    1.389717    0.191391
8
* Frequency(9)  590.2984
C    -8.182587    1.736998   -0.007180   -0.505998   -0.154442   -0.014456
C    -6.768293    2.217545    0.039300   -0.252964   -0.066364   -0.003914
H    -8.259666    0.652273   -0.149761   -0.302700   -0.174706   -0.021147
H    -8.700080    2.264168   -0.823166   -0.603443   -0.302635   -0.049016
H    -8.678874    2.032629    0.930158   -0.607426   -0.308864   -0.019027
O    -6.476599    3.377576    0.192354    0.527621   -0.279533   -0.045226
O    -5.901425    1.186259   -0.111007    0.156052    0.407277    0.052577
H    -4.992217    1.537085   -0.075951   -0.294166    1.389717    0.191391
8
* Frequency(9)  590.2984
C    -8.127446    1.753828   -0.005605   -0.505998   -0.154442   -0.014456
C    -6.740726    2.224777    0.039727   -0.252964   -0.066364   -0.003914
H    -8.226680    0.671312   -0.147456   -0.302700   -0.174706   -0.021147
H    -8.634321    2.297147   -0.817825   -0.603443   -0.302635   -0.049016
H    -8.612681    2.066287    0.932231   -0.607426   -0.308864   -0.019027
O    -6.534096    3.408038    0.197283    0.527621   -0.279533   -0.045226
O    -5.918431    1.141877   -0.116737    0.156052    0.407277    0.052577
H    -4.960161    1.385643   -0.096807   -0.294166    1.389717    0.191391
8
* Frequency(9)  590.2984
C    -8.081440    1.767870   -0.004291   -0.505998   -0.154442   -0.014456
C    -6.717727    2.230811    0.040083   -0.252964   -0.066364   -0.003914
H    -8.199158    0.687196   -0.145533   -0.302700   -0.174706   -0.021147
H    -8.579455    2.324663   -0.813368   -0.603443   -0.302635   -0.049016
H    -8.557453    2.094369    0.933961   -0.607426   -0.308864   -0.019027
O    -6.582068    3.433453    0.201395    0.527621   -0.279533   -0.045226
O    -5.932619    1.104847   -0.121517    0.156052    0.407277    0.052577
H    -4.933415    1.259287   -0.114209   -0.294166    1.389717    0.191391
8
* Frequency(9)  590.2984
C    -8.049553    1.777603   -0.003380   -0.505998   -0.154442   -0.014456
C    -6.701785    2.234993    0.040329   -0.252964   -0.066364   -0.003914
H    -8.180083    0.698206   -0.144201   -0.302700   -0.174706   -0.021147
H    -8.541427    2.343735   -0.810280   -0.603443   -0.302635   -0.049016
H    -8.519174    2.113833    0.935160   -0.607426   -0.308864   -0.019027
O    -6.615318    3.451069    0.204245    0.527621   -0.279533   -0.045226
O    -5.942453    1.079181   -0.124830    0.156052    0.407277    0.052577
H    -4.914877    1.171711   -0.126270   -0.294166    1.389717    0.191391
8
* Frequency(9)  590.2984
C    -8.035242    1.781971   -0.002971   -0.505998   -0.154442   -0.014456
C    -6.694631    2.236870    0.040440   -0.252964   -0.066364   -0.003914
H    -8.171521    0.703147   -0.143603   -0.302700   -0.174706   -0.021147
H    -8.524360    2.352294   -0.808893   -0.603443   -0.302635   -0.049016
H    -8.501994    2.122569    0.935698   -0.607426   -0.308864   -0.019027
O    -6.630241    3.458975    0.205524    0.527621   -0.279533   -0.045226
O    -5.946867    1.067662   -0.126318    0.156052    0.407277    0.052577
H    -4.906557    1.132404   -0.131683   -0.294166    1.389717    0.191391
8
* Frequency(9)  590.2984
C    -8.040056    1.780502   -0.003108   -0.505998   -0.154442   -0.014456
C    -6.697037    2.236239    0.040403   -0.252964   -0.066364   -0.003914
H    -8.174401    0.701485   -0.143804   -0.302700   -0.174706   -0.021147
H    -8.530101    2.349415   -0.809360   -0.603443   -0.302635   -0.049016
H    -8.507773    2.119630    0.935517   -0.607426   -0.308864   -0.019027
O    -6.625221    3.456315    0.205094    0.527621   -0.279533   -0.045226
O    -5.945383    1.071537   -0.125817    0.156052    0.407277    0.052577
H    -4.909356    1.145627   -0.129862   -0.294166    1.389717    0.191391
8
* Frequency(9)  590.2984
C    -8.063475    1.773354   -0.003777   -0.505998   -0.154442   -0.014456
C    -6.708745    2.233167    0.040222   -0.252964   -0.066364   -0.003914
H    -8.188411    0.693399   -0.144783   -0.302700   -0.174706   -0.021147
H    -8.558030    2.335408   -0.811628   -0.603443   -0.302635   -0.049016
H    -8.535886    2.105336    0.934636   -0.607426   -0.308864   -0.019027
O    -6.600801    3.443378    0.203000    0.527621   -0.279533   -0.045226
O    -5.938160    1.090386   -0.123384    0.156052    0.407277    0.052577
H    -4.922970    1.209946   -0.121004   -0.294166    1.389717    0.191391
8
* Frequency(9)  590.2984
C    -8.102960    1.761302   -0.004905   -0.505998   -0.154442   -0.014456
C    -6.728485    2.227989    0.039916   -0.252964   -0.066364   -0.003914
H    -8.212032    0.679766   -0.146433   -0.302700   -0.174706   -0.021147
H    -8.605119    2.311793   -0.815453   -0.603443   -0.302635   -0.049016
H    -8.583286    2.081234    0.933152   -0.607426   -0.308864   -0.019027
O    -6.559629    3.421565    0.199471    0.527621   -0.279533   -0.045226
O    -5.925983    1.122168   -0.119281    0.156052    0.407277    0.052577
H    -4.945925    1.318390   -0.106069   -0.294166    1.389717    0.191391
8
* Frequency(9)  590.2984
C    -8.154232    1.745652   -0.006370   -0.505998   -0.154442   -0.014456
C    -6.754118    2.221264    0.039520   -0.252964   -0.066364   -0.003914
H    -8.242704    0.662063   -0.148576   -0.302700   -0.174706   -0.021147
H    -8.666265    2.281127   -0.820420   -0.603443   -0.302635   -0.049016
H    -8.644836    2.049937    0.931224   -0.607426   -0.308864   -0.019027
O    -6.506165    3.393240    0.194889    0.527621   -0.279533   -0.045226
O    -5.910170    1.163437   -0.113953    0.156052    0.407277    0.052577
H    -4.975733    1.459210   -0.086676   -0.294166    1.389717    0.191391
8
* Frequency(9)  590.2984
C    -8.211736    1.728101   -0.008013   -0.505998   -0.154442   -0.014456
C    -6.782866    2.213722    0.039075   -0.252964   -0.066364   -0.003914
H    -8.277104    0.642209   -0.150979   -0.302700   -0.174706   -0.021147
H    -8.734844    2.246734   -0.825990   -0.603443   -0.302635   -0.049016
H    -8.713867    2.014836    0.929061   -0.607426   -0.308864   -0.019027
O    -6.446204    3.361473    0.189749    0.527621   -0.279533   -0.045226
O    -5.892435    1.209722   -0.107978    0.156052    0.407277    0.052577
H    -5.009163    1.617144   -0.064925   -0.294166    1.389717    0.191391
