8
Coordinates from ORCA-job AcOH E -228.788081256326
  C      -8.235080      1.752520     -0.004460
  C      -6.804370      2.183600      0.034870
  H      -8.303010      0.653820     -0.150410
  H      -8.755660      2.259950     -0.843500
  H      -8.732730      2.020130      0.951150
  O      -6.528600      3.363730      0.189040
  O      -5.820210      1.269610     -0.099830
  H      -4.888560      1.530580     -0.076860
8
Coordinates from ORCA-job AcOH E -228.795057853449
  C      -8.218380      1.740101     -0.006400
  C      -6.792457      2.207022      0.037725
  H      -8.289426      0.650447     -0.151066
  H      -8.735305      2.247804     -0.832741
  H      -8.712874      2.011575      0.937195
  O      -6.500196      3.375210      0.190382
  O      -5.868084      1.248709     -0.101866
  H      -4.951500      1.553072     -0.073228
8
Coordinates from ORCA-job AcOH E -228.797524742909
  C      -8.206102      1.727064     -0.008260
  C      -6.779515      2.222449      0.040148
  H      -8.277736      0.642657     -0.152107
  H      -8.726037      2.243085     -0.828036
  H      -8.704372      2.008569      0.930896
  O      -6.458810      3.374371      0.189849
  O      -5.905642      1.219543     -0.105225
  H      -5.010006      1.596201     -0.067265
8
Coordinates from ORCA-job AcOH E -228.797711830548
  C      -8.209821      1.727149     -0.008300
  C      -6.780201      2.218682      0.038802
  H      -8.280291      0.642036     -0.152042
  H      -8.731786      2.245188     -0.826698
  H      -8.709381      2.011203      0.930422
  O      -6.453103      3.368810      0.189461
  O      -5.897288      1.215298     -0.106134
  H      -5.006349      1.605574     -0.065513
8
Coordinates from ORCA-job AcOH E -228.797776816982
  C      -8.212080      1.727533     -0.007844
  C      -6.781955      2.213982      0.041158
  H      -8.279173      0.641797     -0.151436
  H      -8.734105      2.247271     -0.825944
  H      -8.714753      2.014298      0.929030
  O      -6.446840      3.362272      0.188459
  O      -5.891581      1.210138     -0.107480
  H      -5.007732      1.616649     -0.065945
8
Coordinates from ORCA-job AcOH E -228.797774003184
  C      -8.212028      1.727998     -0.008552
  C      -6.782828      2.214022      0.034967
  H      -8.277717      0.642118     -0.151701
  H      -8.737207      2.247227     -0.824878
  H      -8.712003      2.014676      0.929804
  O      -6.445999      3.361013      0.189984
  O      -5.891614      1.209317     -0.107486
  H      -5.008825      1.617567     -0.062138
8
Coordinates from ORCA-job AcOH E -228.797780491441
  C      -8.211824      1.728004     -0.008060
  C      -6.782793      2.213732      0.038862
  H      -8.277480      0.642155     -0.151247
  H      -8.735026      2.247016     -0.825748
  H      -8.713687      2.014680      0.929195
  O      -6.446361      3.361511      0.189405
  O      -5.892153      1.209692     -0.107751
  H      -5.008895      1.617150     -0.064656
8
Coordinates from ORCA-job AcOH E -228.797780596311
  C      -8.211736      1.728101     -0.008013
  C      -6.782866      2.213722      0.039075
  H      -8.277104      0.642209     -0.150979
  H      -8.734844      2.246734     -0.825990
  H      -8.713867      2.014836      0.929061
  O      -6.446204      3.361473      0.189749
  O      -5.892435      1.209722     -0.107978
  H      -5.009163      1.617144     -0.064925
