8
* (null), Energy   -1000.0000000
C    -8.211736    1.728101   -0.008013    0.133234    0.088581    0.009879
C    -6.782866    2.213722    0.039075    0.336419   -0.125384   -0.021406
H    -8.277104    0.642209   -0.150979   -0.873511    0.115863    0.029301
H    -8.734844    2.246734   -0.825990   -0.757900   -0.615639    0.117573
H    -8.713867    2.014836    0.929061   -0.764868   -0.570532   -0.255526
O    -6.446204    3.361473    0.189749   -0.043472    0.059050    0.008563
O    -5.892435    1.209722   -0.107978   -0.125771   -0.021124   -0.001157
H    -5.009163    1.617144   -0.064925   -0.513732    0.906880    0.128461
8
* Frequency(15) 1340.1967
C    -8.196595    1.738168   -0.006890    0.133234    0.088581    0.009879
C    -6.744633    2.199473    0.036642    0.336419   -0.125384   -0.021406
H    -8.376374    0.655376   -0.147649   -0.873511    0.115863    0.029301
H    -8.820975    2.176770   -0.812628   -0.757900   -0.615639    0.117573
H    -8.800790    1.949998    0.900022   -0.764868   -0.570532   -0.255526
O    -6.451144    3.368183    0.190722   -0.043472    0.059050    0.008563
O    -5.906729    1.207321   -0.108110   -0.125771   -0.021124   -0.001157
H    -5.067546    1.720206   -0.050326   -0.513732    0.906880    0.128461
8
* Frequency(15) 1340.1967
C    -8.183094    1.747143   -0.005889    0.133234    0.088581    0.009879
C    -6.710544    2.186768    0.034473    0.336419   -0.125384   -0.021406
H    -8.464887    0.667117   -0.144680   -0.873511    0.115863    0.029301
H    -8.897773    2.114387   -0.800715   -0.757900   -0.615639    0.117573
H    -8.878294    1.892186    0.874130   -0.764868   -0.570532   -0.255526
O    -6.455549    3.374167    0.191590   -0.043472    0.059050    0.008563
O    -5.919473    1.205181   -0.108227   -0.125771   -0.021124   -0.001157
H    -5.119603    1.812100   -0.037309   -0.513732    0.906880    0.128461
8
* Frequency(15) 1340.1967
C    -8.172698    1.754056   -0.005118    0.133234    0.088581    0.009879
C    -6.684292    2.176984    0.032803    0.336419   -0.125384   -0.021406
H    -8.533050    0.676158   -0.142393   -0.873511    0.115863    0.029301
H    -8.956915    2.066346   -0.791540   -0.757900   -0.615639    0.117573
H    -8.937980    1.847665    0.854190   -0.764868   -0.570532   -0.255526
O    -6.458942    3.378775    0.192258   -0.043472    0.059050    0.008563
O    -5.929287    1.203532   -0.108317   -0.125771   -0.021124   -0.001157
H    -5.159691    1.882868   -0.027285   -0.513732    0.906880    0.128461
8
* Frequency(15) 1340.1967
C    -8.166531    1.758155   -0.004661    0.133234    0.088581    0.009879
C    -6.668722    2.171181    0.031812    0.336419   -0.125384   -0.021406
H    -8.573478    0.681520   -0.141037   -0.873511    0.115863    0.029301
H    -8.991992    2.037854   -0.786099   -0.757900   -0.615639    0.117573
H    -8.973379    1.821260    0.842364   -0.764868   -0.570532   -0.255526
O    -6.460954    3.381508    0.192654   -0.043472    0.059050    0.008563
O    -5.935108    1.202555   -0.108371   -0.125771   -0.021124   -0.001157
H    -5.183468    1.924840   -0.021340   -0.513732    0.906880    0.128461
8
* Frequency(15) 1340.1967
C    -8.165264    1.758998   -0.004567    0.133234    0.088581    0.009879
C    -6.665521    2.169988    0.031608    0.336419   -0.125384   -0.021406
H    -8.581789    0.682623   -0.140759   -0.873511    0.115863    0.029301
H    -8.999203    2.031996   -0.784980   -0.757900   -0.615639    0.117573
H    -8.980657    1.815832    0.839933   -0.764868   -0.570532   -0.255526
O    -6.461367    3.382069    0.192736   -0.043472    0.059050    0.008563
O    -5.936305    1.202354   -0.108382   -0.125771   -0.021124   -0.001157
H    -5.188356    1.933468   -0.020117   -0.513732    0.906880    0.128461
8
* Frequency(15) 1340.1967
C    -8.169032    1.756493   -0.004847    0.133234    0.088581    0.009879
C    -6.675036    2.173534    0.032214    0.336419   -0.125384   -0.021406
H    -8.557083    0.679346   -0.141587   -0.873511    0.115863    0.029301
H    -8.977766    2.049409   -0.788305   -0.757900   -0.615639    0.117573
H    -8.959023    1.831969    0.847160   -0.764868   -0.570532   -0.255526
O    -6.460138    3.380399    0.192494   -0.043472    0.059050    0.008563
O    -5.932748    1.202951   -0.108349   -0.125771   -0.021124   -0.001157
H    -5.173825    1.907818   -0.023751   -0.513732    0.906880    0.128461
8
* Frequency(15) 1340.1967
C    -8.177428    1.750911   -0.005469    0.133234    0.088581    0.009879
C    -6.696236    2.181435    0.033563    0.336419   -0.125384   -0.021406
H    -8.502037    0.672044   -0.143434   -0.873511    0.115863    0.029301
H    -8.930005    2.088205   -0.795715   -0.757900   -0.615639    0.117573
H    -8.910823    1.867922    0.863263   -0.764868   -0.570532   -0.255526
O    -6.457398    3.376678    0.191954   -0.043472    0.059050    0.008563
O    -5.924822    1.204282   -0.108276   -0.125771   -0.021124   -0.001157
H    -5.141451    1.850669   -0.031846   -0.513732    0.906880    0.128461
8
* Frequency(15) 1340.1967
C    -8.189542    1.742857   -0.006367    0.133234    0.088581    0.009879
C    -6.726824    2.192835    0.035509    0.336419   -0.125384   -0.021406
H    -8.422615    0.661510   -0.146098   -0.873511    0.115863    0.029301
H    -8.861096    2.144180   -0.806405   -0.757900   -0.615639    0.117573
H    -8.841280    1.919796    0.886496   -0.764868   -0.570532   -0.255526
O    -6.453446    3.371309    0.191175   -0.043472    0.059050    0.008563
O    -5.913387    1.206203   -0.108171   -0.125771   -0.021124   -0.001157
H    -5.094742    1.768214   -0.043526   -0.513732    0.906880    0.128461
8
* Frequency(15) 1340.1967
C    -8.204061    1.733204   -0.007444    0.133234    0.088581    0.009879
C    -6.763485    2.206499    0.037842    0.336419   -0.125384   -0.021406
H    -8.327426    0.648884   -0.149291   -0.873511    0.115863    0.029301
H    -8.778505    2.211268   -0.819217   -0.757900   -0.615639    0.117573
H    -8.757930    1.981969    0.914341   -0.764868   -0.570532   -0.255526
O    -6.448708    3.364874    0.190242   -0.043472    0.059050    0.008563
O    -5.899681    1.208505   -0.108045   -0.125771   -0.021124   -0.001157
H    -5.038759    1.669388   -0.057525   -0.513732    0.906880    0.128461
8
* Frequency(15) 1340.1967
C    -8.219412    1.722998   -0.008582    0.133234    0.088581    0.009879
C    -6.802246    2.220945    0.040308    0.336419   -0.125384   -0.021406
H    -8.226783    0.635534   -0.152667   -0.873511    0.115863    0.029301
H    -8.691182    2.282200   -0.832763   -0.757900   -0.615639    0.117573
H    -8.669804    2.047703    0.943782   -0.764868   -0.570532   -0.255526
O    -6.443700    3.358071    0.189256   -0.043472    0.059050    0.008563
O    -5.885190    1.210939   -0.107912   -0.125771   -0.021124   -0.001157
H    -4.979568    1.564900   -0.072326   -0.513732    0.906880    0.128461
8
* Frequency(15) 1340.1967
C    -8.233931    1.713345   -0.009659    0.133234    0.088581    0.009879
C    -6.838907    2.234609    0.042641    0.336419   -0.125384   -0.021406
H    -8.131594    0.622908   -0.155860   -0.873511    0.115863    0.029301
H    -8.608591    2.349288   -0.845576   -0.757900   -0.615639    0.117573
H    -8.586454    2.109876    0.971627   -0.764868   -0.570532   -0.255526
O    -6.438962    3.351636    0.188323   -0.043472    0.059050    0.008563
O    -5.871484    1.213241   -0.107786   -0.125771   -0.021124   -0.001157
H    -4.923585    1.466075   -0.086324   -0.513732    0.906880    0.128461
8
* Frequency(15) 1340.1967
C    -8.246045    1.705291   -0.010557    0.133234    0.088581    0.009879
C    -6.869495    2.246009    0.044587    0.336419   -0.125384   -0.021406
H    -8.052172    0.612374   -0.158524   -0.873511    0.115863    0.029301
H    -8.539682    2.405263   -0.856266   -0.757900   -0.615639    0.117573
H    -8.516911    2.161750    0.994860   -0.764868   -0.570532   -0.255526
O    -6.435010    3.346267    0.187544   -0.043472    0.059050    0.008563
O    -5.860049    1.215161   -0.107680   -0.125771   -0.021124   -0.001157
H    -4.876876    1.383619   -0.098004   -0.513732    0.906880    0.128461
8
* Frequency(15) 1340.1967
C    -8.254441    1.699709   -0.011180    0.133234    0.088581    0.009879
C    -6.890695    2.253910    0.045936    0.336419   -0.125384   -0.021406
H    -7.997126    0.605072   -0.160370   -0.873511    0.115863    0.029301
H    -8.491921    2.444059   -0.863675   -0.757900   -0.615639    0.117573
H    -8.468711    2.197703    1.010963   -0.764868   -0.570532   -0.255526
O    -6.432270    3.342546    0.187004   -0.043472    0.059050    0.008563
O    -5.852123    1.216492   -0.107607   -0.125771   -0.021124   -0.001157
H    -4.844502    1.326470   -0.106099   -0.513732    0.906880    0.128461
8
* Frequency(15) 1340.1967
C    -8.258209    1.697204   -0.011459    0.133234    0.088581    0.009879
C    -6.900210    2.257457    0.046542    0.336419   -0.125384   -0.021406
H    -7.972420    0.601795   -0.161199   -0.873511    0.115863    0.029301
H    -8.470484    2.461472   -0.867000   -0.757900   -0.615639    0.117573
H    -8.447077    2.213840    1.018190   -0.764868   -0.570532   -0.255526
O    -6.431041    3.340876    0.186762   -0.043472    0.059050    0.008563
O    -5.848566    1.217090   -0.107575   -0.125771   -0.021124   -0.001157
H    -4.829971    1.300820   -0.109733   -0.513732    0.906880    0.128461
8
* Frequency(15) 1340.1967
C    -8.256941    1.698046   -0.011365    0.133234    0.088581    0.009879
C    -6.897009    2.256264    0.046338    0.336419   -0.125384   -0.021406
H    -7.980731    0.602898   -0.160920   -0.873511    0.115863    0.029301
H    -8.477695    2.455614   -0.865881   -0.757900   -0.615639    0.117573
H    -8.454355    2.208412    1.015759   -0.764868   -0.570532   -0.255526
O    -6.431454    3.341438    0.186844   -0.043472    0.059050    0.008563
O    -5.849763    1.216889   -0.107586   -0.125771   -0.021124   -0.001157
H    -4.834859    1.309449   -0.108511   -0.513732    0.906880    0.128461
8
* Frequency(15) 1340.1967
C    -8.250775    1.702146   -0.010908    0.133234    0.088581    0.009879
C    -6.881439    2.250461    0.045347    0.336419   -0.125384   -0.021406
H    -8.021158    0.608260   -0.159564   -0.873511    0.115863    0.029301
H    -8.512772    2.427121   -0.860440   -0.757900   -0.615639    0.117573
H    -8.489754    2.182006    1.003933   -0.764868   -0.570532   -0.255526
O    -6.433466    3.344171    0.187240   -0.043472    0.059050    0.008563
O    -5.855584    1.215911   -0.107639   -0.125771   -0.021124   -0.001157
H    -4.858636    1.351421   -0.102565   -0.513732    0.906880    0.128461
8
* Frequency(15) 1340.1967
C    -8.240378    1.709058   -0.010137    0.133234    0.088581    0.009879
C    -6.855187    2.240676    0.043677    0.336419   -0.125384   -0.021406
H    -8.089322    0.617301   -0.157278   -0.873511    0.115863    0.029301
H    -8.571914    2.379080   -0.851265   -0.757900   -0.615639    0.117573
H    -8.549440    2.137486    0.983993   -0.764868   -0.570532   -0.255526
O    -6.436859    3.348778    0.187908   -0.043472    0.059050    0.008563
O    -5.865398    1.214263   -0.107730   -0.125771   -0.021124   -0.001157
H    -4.898724    1.422188   -0.092541   -0.513732    0.906880    0.128461
8
* Frequency(15) 1340.1967
C    -8.226878    1.718034   -0.009136    0.133234    0.088581    0.009879
C    -6.821098    2.227971    0.041508    0.336419   -0.125384   -0.021406
H    -8.177834    0.629042   -0.154309   -0.873511    0.115863    0.029301
H    -8.648712    2.316698   -0.839352   -0.757900   -0.615639    0.117573
H    -8.626944    2.079674    0.958101   -0.764868   -0.570532   -0.255526
O    -6.441264    3.354762    0.188776   -0.043472    0.059050    0.008563
O    -5.878142    1.212122   -0.107847   -0.125771   -0.021124   -0.001157
H    -4.950780    1.514082   -0.079524   -0.513732    0.906880    0.128461
8
* Frequency(15) 1340.1967
C    -8.211736    1.728101   -0.008013    0.133234    0.088581    0.009879
C    -6.782866    2.213722    0.039075    0.336419   -0.125384   -0.021406
H    -8.277104    0.642209   -0.150979   -0.873511    0.115863    0.029301
H    -8.734844    2.246734   -0.825990   -0.757900   -0.615639    0.117573
H    -8.713867    2.014836    0.929061   -0.764868   -0.570532   -0.255526
O    -6.446204    3.361473    0.189749   -0.043472    0.059050    0.008563
O    -5.892435    1.209722   -0.107978   -0.125771   -0.021124   -0.001157
H    -5.009163    1.617144   -0.064925   -0.513732    0.906880    0.128461
