8
* (null), Energy   -1000.0000000
C    -8.211736    1.728101   -0.008013    0.280788   -0.010663   -0.005232
C    -6.782866    2.213722    0.039075   -0.267712    0.106174    0.017845
H    -8.277104    0.642209   -0.150979   -0.383846    0.044922    0.014214
H    -8.734844    2.246734   -0.825990   -0.937856    0.139369    0.841401
H    -8.713867    2.014836    0.929061   -0.956967    0.346246   -0.753083
O    -6.446204    3.361473    0.189749    0.020480   -0.076545   -0.010598
O    -5.892435    1.209722   -0.107978    0.092254    0.008436   -0.000074
H    -5.009163    1.617144   -0.064925    0.333540   -0.587584   -0.083434
8
* Frequency(16) 1390.1540
C    -8.179826    1.726889   -0.008608    0.280788   -0.010663   -0.005232
C    -6.813290    2.225788    0.041103   -0.267712    0.106174    0.017845
H    -8.320727    0.647314   -0.149364   -0.383846    0.044922    0.014214
H    -8.841426    2.262572   -0.730369   -0.937856    0.139369    0.841401
H    -8.822621    2.054185    0.843477   -0.956967    0.346246   -0.753083
O    -6.443877    3.352774    0.188545    0.020480   -0.076545   -0.010598
O    -5.881951    1.210681   -0.107987    0.092254    0.008436   -0.000074
H    -4.971258    1.550368   -0.074407    0.333540   -0.587584   -0.083434
8
* Frequency(16) 1390.1540
C    -8.151374    1.725809   -0.009138    0.280788   -0.010663   -0.005232
C    -6.840417    2.236547    0.042911   -0.267712    0.106174    0.017845
H    -8.359622    0.651866   -0.147923   -0.383846    0.044922    0.014214
H    -8.936459    2.276695   -0.645110   -0.937856    0.139369    0.841401
H    -8.919590    2.089270    0.767168   -0.956967    0.346246   -0.753083
O    -6.441801    3.345017    0.187471    0.020480   -0.076545   -0.010598
O    -5.872603    1.211535   -0.107994    0.092254    0.008436   -0.000074
H    -4.937461    1.490829   -0.082861    0.333540   -0.587584   -0.083434
8
* Frequency(16) 1390.1540
C    -8.129463    1.724976   -0.009546    0.280788   -0.010663   -0.005232
C    -6.861307    2.244832    0.044304   -0.267712    0.106174    0.017845
H    -8.389575    0.655371   -0.146814   -0.383846    0.044922    0.014214
H    -9.009643    2.287570   -0.579453   -0.937856    0.139369    0.841401
H    -8.994266    2.116289    0.708402   -0.956967    0.346246   -0.753083
O    -6.440203    3.339044    0.186644    0.020480   -0.076545   -0.010598
O    -5.865404    1.212194   -0.108000    0.092254    0.008436   -0.000074
H    -4.911433    1.444977   -0.089372    0.333540   -0.587584   -0.083434
8
* Frequency(16) 1390.1540
C    -8.116468    1.724483   -0.009788    0.280788   -0.010663   -0.005232
C    -6.873698    2.249746    0.045130   -0.267712    0.106174    0.017845
H    -8.407340    0.657450   -0.146156   -0.383846    0.044922    0.014214
H    -9.053049    2.294020   -0.540511   -0.937856    0.139369    0.841401
H    -9.038556    2.132314    0.673548   -0.956967    0.346246   -0.753083
O    -6.439255    3.335502    0.186153    0.020480   -0.076545   -0.010598
O    -5.861135    1.212584   -0.108004    0.092254    0.008436   -0.000074
H    -4.895997    1.417783   -0.093234    0.333540   -0.587584   -0.083434
8
* Frequency(16) 1390.1540
C    -8.113796    1.724381   -0.009838    0.280788   -0.010663   -0.005232
C    -6.876245    2.250756    0.045299   -0.267712    0.106174    0.017845
H    -8.410992    0.657878   -0.146021   -0.383846    0.044922    0.014214
H    -9.061972    2.295346   -0.532506   -0.937856    0.139369    0.841401
H    -9.047661    2.135608    0.666383   -0.956967    0.346246   -0.753083
O    -6.439061    3.334773    0.186052    0.020480   -0.076545   -0.010598
O    -5.860257    1.212665   -0.108004    0.092254    0.008436   -0.000074
H    -4.892823    1.412192   -0.094027    0.333540   -0.587584   -0.083434
8
* Frequency(16) 1390.1540
C    -8.121738    1.724683   -0.009690    0.280788   -0.010663   -0.005232
C    -6.868673    2.247753    0.044795   -0.267712    0.106174    0.017845
H    -8.400135    0.656607   -0.146423   -0.383846    0.044922    0.014214
H    -9.035446    2.291404   -0.556304   -0.937856    0.139369    0.841401
H    -9.020595    2.125815    0.687683   -0.956967    0.346246   -0.753083
O    -6.439640    3.336938    0.186352    0.020480   -0.076545   -0.010598
O    -5.862866    1.212426   -0.108002    0.092254    0.008436   -0.000074
H    -4.902257    1.428811   -0.091668    0.333540   -0.587584   -0.083434
8
* Frequency(16) 1390.1540
C    -8.139432    1.725355   -0.009360    0.280788   -0.010663   -0.005232
C    -6.851802    2.241062    0.043670   -0.267712    0.106174    0.017845
H    -8.375946    0.653776   -0.147319   -0.383846    0.044922    0.014214
H    -8.976345    2.282622   -0.609327   -0.937856    0.139369    0.841401
H    -8.960289    2.103995    0.735140   -0.956967    0.346246   -0.753083
O    -6.440930    3.341762    0.187020    0.020480   -0.076545   -0.010598
O    -5.868680    1.211894   -0.107997    0.092254    0.008436   -0.000074
H    -4.923276    1.465839   -0.086410    0.333540   -0.587584   -0.083434
8
* Frequency(16) 1390.1540
C    -8.164962    1.726325   -0.008885    0.280788   -0.010663   -0.005232
C    -6.827461    2.231409    0.042048   -0.267712    0.106174    0.017845
H    -8.341046    0.649692   -0.148611   -0.383846    0.044922    0.014214
H    -8.891073    2.269950   -0.685828   -0.937856    0.139369    0.841401
H    -8.873280    2.072514    0.803612   -0.956967    0.346246   -0.753083
O    -6.442792    3.348722    0.187984    0.020480   -0.076545   -0.010598
O    -5.877068    1.211127   -0.107991    0.092254    0.008436   -0.000074
H    -4.953602    1.519263   -0.078824    0.333540   -0.587584   -0.083434
8
* Frequency(16) 1390.1540
C    -8.195561    1.727487   -0.008315    0.280788   -0.010663   -0.005232
C    -6.798288    2.219839    0.040103   -0.267712    0.106174    0.017845
H    -8.299217    0.644797   -0.150160   -0.383846    0.044922    0.014214
H    -8.788872    2.254763   -0.777519   -0.937856    0.139369    0.841401
H    -8.768996    2.034782    0.885678   -0.956967    0.346246   -0.753083
O    -6.445024    3.357063    0.189139    0.020480   -0.076545   -0.010598
O    -5.887121    1.210208   -0.107983    0.092254    0.008436   -0.000074
H    -4.989949    1.583295   -0.069732    0.333540   -0.587584   -0.083434
8
* Frequency(16) 1390.1540
C    -8.227912    1.728715   -0.007712    0.280788   -0.010663   -0.005232
C    -6.767443    2.207606    0.038047   -0.267712    0.106174    0.017845
H    -8.254992    0.639621   -0.151798   -0.383846    0.044922    0.014214
H    -8.680815    2.238705   -0.874462   -0.937856    0.139369    0.841401
H    -8.658738    1.994889    0.972445   -0.956967    0.346246   -0.753083
O    -6.447384    3.365882    0.190360    0.020480   -0.076545   -0.010598
O    -5.897750    1.209236   -0.107974    0.092254    0.008436   -0.000074
H    -5.028378    1.650994   -0.060119    0.333540   -0.587584   -0.083434
8
* Frequency(16) 1390.1540
C    -8.258511    1.729877   -0.007141    0.280788   -0.010663   -0.005232
C    -6.738270    2.196035    0.036102   -0.267712    0.106174    0.017845
H    -8.213163    0.634726   -0.153347   -0.383846    0.044922    0.014214
H    -8.578614    2.223518   -0.966152   -0.937856    0.139369    0.841401
H    -8.554454    1.957158    1.054511   -0.956967    0.346246   -0.753083
O    -6.449616    3.374224    0.191514    0.020480   -0.076545   -0.010598
O    -5.907803    1.208317   -0.107966    0.092254    0.008436   -0.000074
H    -5.064725    1.715025   -0.051026    0.333540   -0.587584   -0.083434
8
* Frequency(16) 1390.1540
C    -8.284040    1.730847   -0.006666    0.280788   -0.010663   -0.005232
C    -6.713929    2.186382    0.034480   -0.267712    0.106174    0.017845
H    -8.178263    0.630641   -0.154639   -0.383846    0.044922    0.014214
H    -8.493342    2.210846   -1.042654   -0.937856    0.139369    0.841401
H    -8.467445    1.925676    1.122983   -0.956967    0.346246   -0.753083
O    -6.451478    3.381183    0.192478    0.020480   -0.076545   -0.010598
O    -5.916191    1.207549   -0.107959    0.092254    0.008436   -0.000074
H    -5.095051    1.768449   -0.043440    0.333540   -0.587584   -0.083434
8
* Frequency(16) 1390.1540
C    -8.301735    1.731519   -0.006336    0.280788   -0.010663   -0.005232
C    -6.697058    2.179691    0.033355   -0.267712    0.106174    0.017845
H    -8.154074    0.627810   -0.155535   -0.383846    0.044922    0.014214
H    -8.434241    2.202063   -1.095676   -0.937856    0.139369    0.841401
H    -8.407140    1.903857    1.170440   -0.956967    0.346246   -0.753083
O    -6.452768    3.386007    0.193146    0.020480   -0.076545   -0.010598
O    -5.922005    1.207018   -0.107954    0.092254    0.008436   -0.000074
H    -5.116070    1.805477   -0.038183    0.333540   -0.587584   -0.083434
8
* Frequency(16) 1390.1540
C    -8.309677    1.731820   -0.006188    0.280788   -0.010663   -0.005232
C    -6.689486    2.176688    0.032850   -0.267712    0.106174    0.017845
H    -8.143217    0.626540   -0.155937   -0.383846    0.044922    0.014214
H    -8.407715    2.198121   -1.119474   -0.937856    0.139369    0.841401
H    -8.380073    1.894064    1.191740   -0.956967    0.346246   -0.753083
O    -6.453348    3.388172    0.193446    0.020480   -0.076545   -0.010598
O    -5.924614    1.206779   -0.107952    0.092254    0.008436   -0.000074
H    -5.125504    1.822096   -0.035823    0.333540   -0.587584   -0.083434
8
* Frequency(16) 1390.1540
C    -8.307005    1.731719   -0.006238    0.280788   -0.010663   -0.005232
C    -6.692034    2.177698    0.033020   -0.267712    0.106174    0.017845
H    -8.146869    0.626967   -0.155801   -0.383846    0.044922    0.014214
H    -8.416638    2.199447   -1.111469   -0.937856    0.139369    0.841401
H    -8.389178    1.897358    1.184575   -0.956967    0.346246   -0.753083
O    -6.453153    3.387444    0.193345    0.020480   -0.076545   -0.010598
O    -5.923736    1.206860   -0.107953    0.092254    0.008436   -0.000074
H    -5.122330    1.816506   -0.036617    0.333540   -0.587584   -0.083434
8
* Frequency(16) 1390.1540
C    -8.294010    1.731225   -0.006480    0.280788   -0.010663   -0.005232
C    -6.704424    2.182612    0.033846   -0.267712    0.106174    0.017845
H    -8.164634    0.629046   -0.155144   -0.383846    0.044922    0.014214
H    -8.460044    2.205898   -1.072527   -0.937856    0.139369    0.841401
H    -8.433468    1.913383    1.149721   -0.956967    0.346246   -0.753083
O    -6.452205    3.383901    0.192854    0.020480   -0.076545   -0.010598
O    -5.919467    1.207250   -0.107957    0.092254    0.008436   -0.000074
H    -5.106894    1.789311   -0.040478    0.333540   -0.587584   -0.083434
8
* Frequency(16) 1390.1540
C    -8.272099    1.730393   -0.006888    0.280788   -0.010663   -0.005232
C    -6.725314    2.190897    0.035239   -0.267712    0.106174    0.017845
H    -8.194587    0.632552   -0.154034   -0.383846    0.044922    0.014214
H    -8.533228    2.216773   -1.006870   -0.937856    0.139369    0.841401
H    -8.508144    1.940402    1.090955   -0.956967    0.346246   -0.753083
O    -6.450607    3.377928    0.192027    0.020480   -0.076545   -0.010598
O    -5.912268    1.207908   -0.107962    0.092254    0.008436   -0.000074
H    -5.080866    1.743460   -0.046989    0.333540   -0.587584   -0.083434
8
* Frequency(16) 1390.1540
C    -8.243646    1.729313   -0.007418    0.280788   -0.010663   -0.005232
C    -6.752442    2.201656    0.037047   -0.267712    0.106174    0.017845
H    -8.233482    0.637104   -0.152594   -0.383846    0.044922    0.014214
H    -8.628261    2.230895   -0.921611   -0.937856    0.139369    0.841401
H    -8.605113    1.975487    1.014645   -0.956967    0.346246   -0.753083
O    -6.448531    3.370172    0.190953    0.020480   -0.076545   -0.010598
O    -5.902920    1.208763   -0.107970    0.092254    0.008436   -0.000074
H    -5.047069    1.683920   -0.055443    0.333540   -0.587584   -0.083434
8
* Frequency(16) 1390.1540
C    -8.211736    1.728101   -0.008013    0.280788   -0.010663   -0.005232
C    -6.782866    2.213722    0.039075   -0.267712    0.106174    0.017845
H    -8.277104    0.642209   -0.150979   -0.383846    0.044922    0.014214
H    -8.734844    2.246734   -0.825990   -0.937856    0.139369    0.841401
H    -8.713867    2.014836    0.929061   -0.956967    0.346246   -0.753083
O    -6.446204    3.361473    0.189749    0.020480   -0.076545   -0.010598
O    -5.892435    1.209722   -0.107978    0.092254    0.008436   -0.000074
H    -5.009163    1.617144   -0.064925    0.333540   -0.587584   -0.083434
