8
* (null), Energy   -1000.0000000
C    -8.211736    1.728101   -0.008013    0.087604    0.104916    0.012953
C    -6.782866    2.213722    0.039075   -0.506306   -1.371834   -0.178695
H    -8.277104    0.642209   -0.150979    0.371713    0.082932    0.007632
H    -8.734844    2.246734   -0.825990   -0.143612   -0.068186    0.080877
H    -8.713867    2.014836    0.929061   -0.147167   -0.047411   -0.093121
O    -6.446204    3.361473    0.189749    0.272039    0.871609    0.114209
O    -5.892435    1.209722   -0.107978    0.012982    0.129475    0.017289
H    -5.009163    1.617144   -0.064925    0.384326   -0.760379   -0.107607
8
* Frequency(19) 1866.3071
C    -8.201781    1.740024   -0.006541    0.087604    0.104916    0.012953
C    -6.840405    2.057820    0.018767   -0.506306   -1.371834   -0.178695
H    -8.234861    0.651634   -0.150112    0.371713    0.082932    0.007632
H    -8.751164    2.238985   -0.816799   -0.143612   -0.068186    0.080877
H    -8.730592    2.009448    0.918479   -0.147167   -0.047411   -0.093121
O    -6.415288    3.460526    0.202728    0.272039    0.871609    0.114209
O    -5.890960    1.224436   -0.106014    0.012982    0.129475    0.017289
H    -4.965487    1.530731   -0.077154    0.384326   -0.760379   -0.107607
8
* Frequency(19) 1866.3071
C    -8.192904    1.750655   -0.005229    0.087604    0.104916    0.012953
C    -6.891708    1.918813    0.000660   -0.506306   -1.371834   -0.178695
H    -8.197196    0.660037   -0.149338    0.371713    0.082932    0.007632
H    -8.765716    2.232076   -0.808604   -0.143612   -0.068186    0.080877
H    -8.745504    2.004644    0.909043   -0.147167   -0.047411   -0.093121
O    -6.387723    3.548846    0.214301    0.272039    0.871609    0.114209
O    -5.889645    1.237556   -0.104262    0.012982    0.129475    0.017289
H    -4.926543    1.453682   -0.088058    0.384326   -0.760379   -0.107607
8
* Frequency(19) 1866.3071
C    -8.186068    1.758842   -0.004218    0.087604    0.104916    0.012953
C    -6.931217    1.811763   -0.013284   -0.506306   -1.371834   -0.178695
H    -8.168189    0.666509   -0.148743    0.371713    0.082932    0.007632
H    -8.776923    2.226755   -0.802292   -0.143612   -0.068186    0.080877
H    -8.756988    2.000944    0.901776   -0.147167   -0.047411   -0.093121
O    -6.366494    3.616861    0.223213    0.272039    0.871609    0.114209
O    -5.888632    1.247659   -0.102912    0.012982    0.129475    0.017289
H    -4.896553    1.394347   -0.096455    0.384326   -0.760379   -0.107607
8
* Frequency(19) 1866.3071
C    -8.182013    1.763698   -0.003618    0.087604    0.104916    0.012953
C    -6.954650    1.748272   -0.021554   -0.506306   -1.371834   -0.178695
H    -8.150986    0.670347   -0.148389    0.371713    0.082932    0.007632
H    -8.783570    2.223599   -0.798549   -0.143612   -0.068186    0.080877
H    -8.763799    1.998750    0.897467   -0.147167   -0.047411   -0.093121
O    -6.353904    3.657201    0.228499    0.272039    0.871609    0.114209
O    -5.888031    1.253652   -0.102112    0.012982    0.129475    0.017289
H    -4.878766    1.359155   -0.101435    0.384326   -0.760379   -0.107607
8
* Frequency(19) 1866.3071
C    -8.181180    1.764696   -0.003495    0.087604    0.104916    0.012953
C    -6.959467    1.735220   -0.023255   -0.506306   -1.371834   -0.178695
H    -8.147449    0.671136   -0.148317    0.371713    0.082932    0.007632
H    -8.784936    2.222950   -0.797780   -0.143612   -0.068186    0.080877
H    -8.765200    1.998298    0.896581   -0.147167   -0.047411   -0.093121
O    -6.351316    3.665494    0.229586    0.272039    0.871609    0.114209
O    -5.887907    1.254883   -0.101948    0.012982    0.129475    0.017289
H    -4.875109    1.351921   -0.102459    0.384326   -0.760379   -0.107607
8
* Frequency(19) 1866.3071
C    -8.183657    1.761728   -0.003862    0.087604    0.104916    0.012953
C    -6.945147    1.774021   -0.018200   -0.506306   -1.371834   -0.178695
H    -8.157963    0.668790   -0.148533    0.371713    0.082932    0.007632
H    -8.780874    2.224879   -0.800067   -0.143612   -0.068186    0.080877
H    -8.761037    1.999639    0.899214   -0.147167   -0.047411   -0.093121
O    -6.359010    3.640841    0.226355    0.272039    0.871609    0.114209
O    -5.888274    1.251221   -0.102437    0.012982    0.129475    0.017289
H    -4.885979    1.373427   -0.099415    0.384326   -0.760379   -0.107607
8
* Frequency(19) 1866.3071
C    -8.189178    1.755117   -0.004678    0.087604    0.104916    0.012953
C    -6.913241    1.860470   -0.006940   -0.506306   -1.371834   -0.178695
H    -8.181387    0.663564   -0.149014    0.371713    0.082932    0.007632
H    -8.771824    2.229176   -0.805164   -0.143612   -0.068186    0.080877
H    -8.751763    2.002627    0.905083   -0.147167   -0.047411   -0.093121
O    -6.376153    3.585915    0.219158    0.272039    0.871609    0.114209
O    -5.889093    1.243062   -0.103526    0.012982    0.129475    0.017289
H    -4.910198    1.421344   -0.092634    0.384326   -0.760379   -0.107607
8
* Frequency(19) 1866.3071
C    -8.197143    1.745578   -0.005855    0.087604    0.104916    0.012953
C    -6.867207    1.985200    0.009308   -0.506306   -1.371834   -0.178695
H    -8.215184    0.656024   -0.149708    0.371713    0.082932    0.007632
H    -8.758767    2.235375   -0.812517   -0.143612   -0.068186    0.080877
H    -8.738382    2.006938    0.913549   -0.147167   -0.047411   -0.093121
O    -6.400887    3.506667    0.208774    0.272039    0.871609    0.114209
O    -5.890273    1.231290   -0.105098    0.012982    0.129475    0.017289
H    -4.945142    1.490479   -0.082850    0.384326   -0.760379   -0.107607
8
* Frequency(19) 1866.3071
C    -8.206690    1.734145   -0.007267    0.087604    0.104916    0.012953
C    -6.812033    2.134693    0.028781   -0.506306   -1.371834   -0.178695
H    -8.255691    0.646986   -0.150539    0.371713    0.082932    0.007632
H    -8.743117    2.242806   -0.821331   -0.143612   -0.068186    0.080877
H    -8.722345    2.012105    0.923697   -0.147167   -0.047411   -0.093121
O    -6.430532    3.411684    0.196328    0.272039    0.871609    0.114209
O    -5.891688    1.217181   -0.106982    0.012982    0.129475    0.017289
H    -4.987023    1.573340   -0.071124    0.384326   -0.760379   -0.107607
8
* Frequency(19) 1866.3071
C    -8.216783    1.722057   -0.008759    0.087604    0.104916    0.012953
C    -6.753698    2.292751    0.049369   -0.506306   -1.371834   -0.178695
H    -8.298518    0.637431   -0.151419    0.371713    0.082932    0.007632
H    -8.726570    2.250662   -0.830649   -0.143612   -0.068186    0.080877
H    -8.705389    2.017567    0.934426   -0.147167   -0.047411   -0.093121
O    -6.461876    3.311261    0.183170    0.272039    0.871609    0.114209
O    -5.893183    1.202263   -0.108974    0.012982    0.129475    0.017289
H    -5.031304    1.660948   -0.058726    0.384326   -0.760379   -0.107607
8
* Frequency(19) 1866.3071
C    -8.226330    1.710624   -0.010171    0.087604    0.104916    0.012953
C    -6.698524    2.442244    0.068842   -0.506306   -1.371834   -0.178695
H    -8.339025    0.628394   -0.152250    0.371713    0.082932    0.007632
H    -8.710920    2.258092   -0.839463   -0.143612   -0.068186    0.080877
H    -8.689352    2.022734    0.944574   -0.147167   -0.047411   -0.093121
O    -6.491521    3.216279    0.170724    0.272039    0.871609    0.114209
O    -5.894598    1.188154   -0.110858    0.012982    0.129475    0.017289
H    -5.073185    1.743809   -0.047000    0.384326   -0.760379   -0.107607
8
* Frequency(19) 1866.3071
C    -8.234295    1.701085   -0.011348    0.087604    0.104916    0.012953
C    -6.652490    2.566974    0.085089   -0.506306   -1.371834   -0.178695
H    -8.372822    0.620854   -0.152944    0.371713    0.082932    0.007632
H    -8.697863    2.264292   -0.846816   -0.143612   -0.068186    0.080877
H    -8.675971    2.027044    0.953040   -0.147167   -0.047411   -0.093121
O    -6.516255    3.137030    0.160340    0.272039    0.871609    0.114209
O    -5.895778    1.176382   -0.112430    0.012982    0.129475    0.017289
H    -5.108129    1.812944   -0.037216    0.384326   -0.760379   -0.107607
8
* Frequency(19) 1866.3071
C    -8.239815    1.694473   -0.012165    0.087604    0.104916    0.012953
C    -6.620584    2.653423    0.096350   -0.506306   -1.371834   -0.178695
H    -8.396246    0.615628   -0.153425    0.371713    0.082932    0.007632
H    -8.688813    2.268589   -0.851913   -0.143612   -0.068186    0.080877
H    -8.666697    2.030032    0.958909   -0.147167   -0.047411   -0.093121
O    -6.533398    3.082104    0.153143    0.272039    0.871609    0.114209
O    -5.896596    1.168222   -0.113520    0.012982    0.129475    0.017289
H    -5.132348    1.860861   -0.030435    0.384326   -0.760379   -0.107607
8
* Frequency(19) 1866.3071
C    -8.242293    1.691506   -0.012531    0.087604    0.104916    0.012953
C    -6.606264    2.692224    0.101404   -0.506306   -1.371834   -0.178695
H    -8.406760    0.613282   -0.153641    0.371713    0.082932    0.007632
H    -8.684751    2.270517   -0.854200   -0.143612   -0.068186    0.080877
H    -8.662535    2.031373    0.961542   -0.147167   -0.047411   -0.093121
O    -6.541092    3.057451    0.149912    0.272039    0.871609    0.114209
O    -5.896964    1.164560   -0.114009    0.012982    0.129475    0.017289
H    -5.143218    1.882368   -0.027391    0.384326   -0.760379   -0.107607
8
* Frequency(19) 1866.3071
C    -8.241460    1.692504   -0.012408    0.087604    0.104916    0.012953
C    -6.611081    2.679172    0.099704   -0.506306   -1.371834   -0.178695
H    -8.403223    0.614071   -0.153568    0.371713    0.082932    0.007632
H    -8.686117    2.269869   -0.853431   -0.143612   -0.068186    0.080877
H    -8.663935    2.030922    0.960656   -0.147167   -0.047411   -0.093121
O    -6.538504    3.065744    0.150999    0.272039    0.871609    0.114209
O    -5.896840    1.165792   -0.113844    0.012982    0.129475    0.017289
H    -5.139561    1.875133   -0.028415    0.384326   -0.760379   -0.107607
8
* Frequency(19) 1866.3071
C    -8.237405    1.697360   -0.011808    0.087604    0.104916    0.012953
C    -6.634514    2.615681    0.091434   -0.506306   -1.371834   -0.178695
H    -8.386019    0.617909   -0.153215    0.371713    0.082932    0.007632
H    -8.692764    2.266713   -0.849688   -0.143612   -0.068186    0.080877
H    -8.670746    2.028728    0.956347   -0.147167   -0.047411   -0.093121
O    -6.525914    3.106084    0.156285    0.272039    0.871609    0.114209
O    -5.896239    1.171785   -0.113044    0.012982    0.129475    0.017289
H    -5.121774    1.839941   -0.033395    0.384326   -0.760379   -0.107607
8
* Frequency(19) 1866.3071
C    -8.230569    1.705547   -0.010798    0.087604    0.104916    0.012953
C    -6.674023    2.508631    0.077490   -0.506306   -1.371834   -0.178695
H    -8.357013    0.624381   -0.152620    0.371713    0.082932    0.007632
H    -8.703971    2.261392   -0.843377   -0.143612   -0.068186    0.080877
H    -8.682230    2.025028    0.949080   -0.147167   -0.047411   -0.093121
O    -6.504685    3.174099    0.165197    0.272039    0.871609    0.114209
O    -5.895226    1.181888   -0.111695    0.012982    0.129475    0.017289
H    -5.091784    1.780606   -0.041792    0.384326   -0.760379   -0.107607
8
* Frequency(19) 1866.3071
C    -8.221692    1.716178   -0.009485    0.087604    0.104916    0.012953
C    -6.725327    2.369624    0.059383   -0.506306   -1.371834   -0.178695
H    -8.319348    0.632784   -0.151846    0.371713    0.082932    0.007632
H    -8.718523    2.254483   -0.835181   -0.143612   -0.068186    0.080877
H    -8.697142    2.020224    0.939644   -0.147167   -0.047411   -0.093121
O    -6.477120    3.262419    0.176770    0.272039    0.871609    0.114209
O    -5.893911    1.195008   -0.109943    0.012982    0.129475    0.017289
H    -5.052840    1.703557   -0.052696    0.384326   -0.760379   -0.107607
8
* Frequency(19) 1866.3071
C    -8.211736    1.728101   -0.008013    0.087604    0.104916    0.012953
C    -6.782866    2.213722    0.039075   -0.506306   -1.371834   -0.178695
H    -8.277104    0.642209   -0.150979    0.371713    0.082932    0.007632
H    -8.734844    2.246734   -0.825990   -0.143612   -0.068186    0.080877
H    -8.713867    2.014836    0.929061   -0.147167   -0.047411   -0.093121
O    -6.446204    3.361473    0.189749    0.272039    0.871609    0.114209
O    -5.892435    1.209722   -0.107978    0.012982    0.129475    0.017289
H    -5.009163    1.617144   -0.064925    0.384326   -0.760379   -0.107607
