8
* (null), Energy   -1000.0000000
C    -8.211736    1.728101   -0.008013    0.003929   -0.046104    0.335695
C    -6.782866    2.213722    0.039075   -0.004844    0.054009   -0.399397
H    -8.277104    0.642209   -0.150979   -0.016087    0.097242   -0.742402
H    -8.734844    2.246734   -0.825990    1.200354    0.217492   -0.296480
H    -8.713867    2.014836    0.929061   -1.205627   -0.130059   -0.316911
O    -6.446204    3.361473    0.189749    0.001236   -0.009655    0.073556
O    -5.892435    1.209722   -0.107978    0.000695   -0.007175    0.054724
H    -5.009163    1.617144   -0.064925    0.001612   -0.011743    0.078770
8
* Frequency(13) 1050.0382
C    -8.211290    1.722861    0.030137    0.003929   -0.046104    0.335695
C    -6.783416    2.219860   -0.006314   -0.004844    0.054009   -0.399397
H    -8.278933    0.653260   -0.235349   -0.016087    0.097242   -0.742402
H    -8.598430    2.271451   -0.859684    1.200354    0.217492   -0.296480
H    -8.850880    2.000055    0.893046   -1.205627   -0.130059   -0.316911
O    -6.446064    3.360375    0.198108    0.001236   -0.009655    0.073556
O    -5.892357    1.208906   -0.101759    0.000695   -0.007175    0.054724
H    -5.008980    1.615810   -0.055973    0.001612   -0.011743    0.078770
8
* Frequency(13) 1050.0382
C    -8.210892    1.718190    0.064153    0.003929   -0.046104    0.335695
C    -6.783907    2.225333   -0.046785   -0.004844    0.054009   -0.399397
H    -8.280563    0.663113   -0.310576   -0.016087    0.097242   -0.742402
H    -8.476798    2.293489   -0.889726    1.200354    0.217492   -0.296480
H    -8.973046    1.986876    0.860934   -1.205627   -0.130059   -0.316911
O    -6.445938    3.359397    0.205562    0.001236   -0.009655    0.073556
O    -5.892286    1.208179   -0.096214    0.000695   -0.007175    0.054724
H    -5.008817    1.614620   -0.047992    0.001612   -0.011743    0.078770
8
* Frequency(13) 1050.0382
C    -8.210585    1.714592    0.090348    0.003929   -0.046104    0.335695
C    -6.784285    2.229547   -0.077952   -0.004844    0.054009   -0.399397
H    -8.281818    0.670701   -0.368509   -0.016087    0.097242   -0.742402
H    -8.383130    2.310461   -0.912861    1.200354    0.217492   -0.296480
H    -9.067126    1.976727    0.836204   -1.205627   -0.130059   -0.316911
O    -6.445842    3.358644    0.211302    0.001236   -0.009655    0.073556
O    -5.892232    1.207620   -0.091944    0.000695   -0.007175    0.054724
H    -5.008691    1.613703   -0.041845    0.001612   -0.011743    0.078770
8
* Frequency(13) 1050.0382
C    -8.210403    1.712458    0.105885    0.003929   -0.046104    0.335695
C    -6.784509    2.232047   -0.096437   -0.004844    0.054009   -0.399397
H    -8.282562    0.675202   -0.402869   -0.016087    0.097242   -0.742402
H    -8.327575    2.320527   -0.926583    1.200354    0.217492   -0.296480
H    -9.122924    1.970708    0.821537   -1.205627   -0.130059   -0.316911
O    -6.445785    3.358197    0.214706    0.001236   -0.009655    0.073556
O    -5.892200    1.207287   -0.089411    0.000695   -0.007175    0.054724
H    -5.008617    1.613160   -0.038199    0.001612   -0.011743    0.078770
8
* Frequency(13) 1050.0382
C    -8.210366    1.712020    0.109079    0.003929   -0.046104    0.335695
C    -6.784555    2.232561   -0.100237   -0.004844    0.054009   -0.399397
H    -8.282716    0.676127   -0.409932   -0.016087    0.097242   -0.742402
H    -8.316155    2.322596   -0.929404    1.200354    0.217492   -0.296480
H    -9.134395    1.969471    0.818522   -1.205627   -0.130059   -0.316911
O    -6.445773    3.358105    0.215406    0.001236   -0.009655    0.073556
O    -5.892193    1.207219   -0.088890    0.000695   -0.007175    0.054724
H    -5.008601    1.613048   -0.037450    0.001612   -0.011743    0.078770
8
* Frequency(13) 1050.0382
C    -8.210477    1.713324    0.099584    0.003929   -0.046104    0.335695
C    -6.784418    2.231033   -0.088940   -0.004844    0.054009   -0.399397
H    -8.282261    0.673377   -0.388934   -0.016087    0.097242   -0.742402
H    -8.350105    2.316445   -0.921018    1.200354    0.217492   -0.296480
H    -9.100295    1.973149    0.827485   -1.205627   -0.130059   -0.316911
O    -6.445808    3.358378    0.213325    0.001236   -0.009655    0.073556
O    -5.892213    1.207422   -0.090438    0.000695   -0.007175    0.054724
H    -5.008647    1.613380   -0.039678    0.001612   -0.011743    0.078770
8
* Frequency(13) 1050.0382
C    -8.210725    1.716229    0.078430    0.003929   -0.046104    0.335695
C    -6.784113    2.227630   -0.063771   -0.004844    0.054009   -0.399397
H    -8.281247    0.667249   -0.342150   -0.016087    0.097242   -0.742402
H    -8.425748    2.302739   -0.902335    1.200354    0.217492   -0.296480
H    -9.024320    1.981345    0.847456   -1.205627   -0.130059   -0.316911
O    -6.445886    3.358986    0.208690    0.001236   -0.009655    0.073556
O    -5.892257    1.207874   -0.093887    0.000695   -0.007175    0.054724
H    -5.008748    1.614120   -0.044642    0.001612   -0.011743    0.078770
8
* Frequency(13) 1050.0382
C    -8.211082    1.720421    0.047908    0.003929   -0.046104    0.335695
C    -6.783672    2.222719   -0.027457   -0.004844    0.054009   -0.399397
H    -8.279784    0.658408   -0.274649   -0.016087    0.097242   -0.742402
H    -8.534887    2.282964   -0.875378    1.200354    0.217492   -0.296480
H    -8.914702    1.993170    0.876270   -1.205627   -0.130059   -0.316911
O    -6.445998    3.359864    0.202002    0.001236   -0.009655    0.073556
O    -5.892320    1.208527   -0.098862    0.000695   -0.007175    0.054724
H    -5.008895    1.615188   -0.051803    0.001612   -0.011743    0.078770
8
* Frequency(13) 1050.0382
C    -8.211510    1.725445    0.011326    0.003929   -0.046104    0.335695
C    -6.783145    2.216833    0.016066   -0.004844    0.054009   -0.399397
H    -8.278031    0.647811   -0.193747   -0.016087    0.097242   -0.742402
H    -8.665693    2.259263   -0.843070    1.200354    0.217492   -0.296480
H    -8.783321    2.007343    0.910805   -1.205627   -0.130059   -0.316911
O    -6.446133    3.360916    0.193986    0.001236   -0.009655    0.073556
O    -5.892395    1.209309   -0.104826    0.000695   -0.007175    0.054724
H    -5.009071    1.616468   -0.060387    0.001612   -0.011743    0.078770
8
* Frequency(13) 1050.0382
C    -8.211963    1.730757   -0.027352    0.003929   -0.046104    0.335695
C    -6.782587    2.210611    0.062083   -0.004844    0.054009   -0.399397
H    -8.276178    0.636607   -0.108210   -0.016087    0.097242   -0.742402
H    -8.803994    2.234204   -0.808910    1.200354    0.217492   -0.296480
H    -8.644413    2.022328    0.947318   -1.205627   -0.130059   -0.316911
O    -6.446275    3.362029    0.185512    0.001236   -0.009655    0.073556
O    -5.892476    1.210135   -0.111131    0.000695   -0.007175    0.054724
H    -5.009256    1.617821   -0.069463    0.001612   -0.011743    0.078770
8
* Frequency(13) 1050.0382
C    -8.212391    1.735781   -0.063934    0.003929   -0.046104    0.335695
C    -6.782059    2.204725    0.105607   -0.004844    0.054009   -0.399397
H    -8.274425    0.626010   -0.027308   -0.016087    0.097242   -0.742402
H    -8.934800    2.210504   -0.776602    1.200354    0.217492   -0.296480
H    -8.513032    2.036501    0.981853   -1.205627   -0.130059   -0.316911
O    -6.446410    3.363081    0.177496    0.001236   -0.009655    0.073556
O    -5.892551    1.210917   -0.117094    0.000695   -0.007175    0.054724
H    -5.009432    1.619100   -0.078047    0.001612   -0.011743    0.078770
8
* Frequency(13) 1050.0382
C    -8.212748    1.739973   -0.094456    0.003929   -0.046104    0.335695
C    -6.781618    2.199815    0.141921   -0.004844    0.054009   -0.399397
H    -8.272962    0.617169    0.040192   -0.016087    0.097242   -0.742402
H    -9.043939    2.190729   -0.749645    1.200354    0.217492   -0.296480
H    -8.403414    2.048326    1.010667   -1.205627   -0.130059   -0.316911
O    -6.446522    3.363959    0.170808    0.001236   -0.009655    0.073556
O    -5.892614    1.211569   -0.122070    0.000695   -0.007175    0.054724
H    -5.009578    1.620168   -0.085209    0.001612   -0.011743    0.078770
8
* Frequency(13) 1050.0382
C    -8.212996    1.742878   -0.115610    0.003929   -0.046104    0.335695
C    -6.781313    2.196411    0.167090   -0.004844    0.054009   -0.399397
H    -8.271948    0.611041    0.086976   -0.016087    0.097242   -0.742402
H    -9.119582    2.177023   -0.730962    1.200354    0.217492   -0.296480
H    -8.327439    2.056522    1.030638   -1.205627   -0.130059   -0.316911
O    -6.446600    3.364567    0.166173    0.001236   -0.009655    0.073556
O    -5.892658    1.212022   -0.125519    0.000695   -0.007175    0.054724
H    -5.009680    1.620908   -0.090173    0.001612   -0.011743    0.078770
8
* Frequency(13) 1050.0382
C    -8.213107    1.744182   -0.125105    0.003929   -0.046104    0.335695
C    -6.781176    2.194884    0.178387   -0.004844    0.054009   -0.399397
H    -8.271493    0.608291    0.107974   -0.016087    0.097242   -0.742402
H    -9.153532    2.170872   -0.722576    1.200354    0.217492   -0.296480
H    -8.293339    2.060201    1.039601   -1.205627   -0.130059   -0.316911
O    -6.446635    3.364840    0.164092    0.001236   -0.009655    0.073556
O    -5.892678    1.212225   -0.127066    0.000695   -0.007175    0.054724
H    -5.009726    1.621240   -0.092400    0.001612   -0.011743    0.078770
8
* Frequency(13) 1050.0382
C    -8.213070    1.743743   -0.121911    0.003929   -0.046104    0.335695
C    -6.781222    2.195397    0.174587   -0.004844    0.054009   -0.399397
H    -8.271646    0.609216    0.100911   -0.016087    0.097242   -0.742402
H    -9.142112    2.172941   -0.725397    1.200354    0.217492   -0.296480
H    -8.304810    2.058964    1.036586   -1.205627   -0.130059   -0.316911
O    -6.446623    3.364748    0.164792    0.001236   -0.009655    0.073556
O    -5.892671    1.212156   -0.126546    0.000695   -0.007175    0.054724
H    -5.009710    1.621128   -0.091651    0.001612   -0.011743    0.078770
8
* Frequency(13) 1050.0382
C    -8.212888    1.741610   -0.106375    0.003929   -0.046104    0.335695
C    -6.781446    2.197897    0.156102   -0.004844    0.054009   -0.399397
H    -8.272391    0.613716    0.066551   -0.016087    0.097242   -0.742402
H    -9.086557    2.183007   -0.739119    1.200354    0.217492   -0.296480
H    -8.360609    2.052944    1.021919   -1.205627   -0.130059   -0.316911
O    -6.446566    3.364302    0.168196    0.001236   -0.009655    0.073556
O    -5.892639    1.211824   -0.124013    0.000695   -0.007175    0.054724
H    -5.009636    1.620585   -0.088005    0.001612   -0.011743    0.078770
8
* Frequency(13) 1050.0382
C    -8.212581    1.738012   -0.080179    0.003929   -0.046104    0.335695
C    -6.781824    2.202112    0.124935   -0.004844    0.054009   -0.399397
H    -8.273646    0.621304    0.008619   -0.016087    0.097242   -0.742402
H    -8.992889    2.199979   -0.762254    1.200354    0.217492   -0.296480
H    -8.454688    2.042795    0.997189   -1.205627   -0.130059   -0.316911
O    -6.446470    3.363548    0.173936    0.001236   -0.009655    0.073556
O    -5.892585    1.211264   -0.119743    0.000695   -0.007175    0.054724
H    -5.009510    1.619668   -0.081859    0.001612   -0.011743    0.078770
8
* Frequency(13) 1050.0382
C    -8.212183    1.733340   -0.046163    0.003929   -0.046104    0.335695
C    -6.782315    2.207584    0.084464   -0.004844    0.054009   -0.399397
H    -8.275276    0.631158   -0.066609   -0.016087    0.097242   -0.742402
H    -8.871258    2.222017   -0.792297    1.200354    0.217492   -0.296480
H    -8.576854    2.029616    0.965077   -1.205627   -0.130059   -0.316911
O    -6.446345    3.362570    0.181390    0.001236   -0.009655    0.073556
O    -5.892514    1.210537   -0.114197    0.000695   -0.007175    0.054724
H    -5.009347    1.618479   -0.073877    0.001612   -0.011743    0.078770
8
* Frequency(13) 1050.0382
C    -8.211736    1.728101   -0.008013    0.003929   -0.046104    0.335695
C    -6.782866    2.213722    0.039075   -0.004844    0.054009   -0.399397
H    -8.277104    0.642209   -0.150979   -0.016087    0.097242   -0.742402
H    -8.734844    2.246734   -0.825990    1.200354    0.217492   -0.296480
H    -8.713867    2.014836    0.929061   -1.205627   -0.130059   -0.316911
O    -6.446204    3.361473    0.189749    0.001236   -0.009655    0.073556
O    -5.892435    1.209722   -0.107978    0.000695   -0.007175    0.054724
H    -5.009163    1.617144   -0.064925    0.001612   -0.011743    0.078770
