8
* (null), Energy   -1000.0000000
C    -8.211736    1.728101   -0.008013    0.000343    0.002026   -0.013706
C    -6.782866    2.213722    0.039075    0.005718   -0.057969    0.429373
H    -8.277104    0.642209   -0.150979   -0.009272    0.072381   -0.543365
H    -8.734844    2.246734   -0.825990    0.715307    0.350856   -0.260050
H    -8.713867    2.014836    0.929061   -0.719303   -0.269396   -0.325308
O    -6.446204    3.361473    0.189749   -0.002335    0.019075   -0.139955
O    -5.892435    1.209722   -0.107978   -0.000191    0.001147   -0.010645
H    -5.009163    1.617144   -0.064925   -0.018847    0.191785   -1.433907
8
* Frequency(8)  549.8303
C    -8.211697    1.728331   -0.009571    0.000343    0.002026   -0.013706
C    -6.782216    2.207134    0.087871    0.005718   -0.057969    0.429373
H    -8.278158    0.650435   -0.212729   -0.009272    0.072381   -0.543365
H    -8.653553    2.286607   -0.855543    0.715307    0.350856   -0.260050
H    -8.795612    1.984220    0.892092   -0.719303   -0.269396   -0.325308
O    -6.446469    3.363640    0.173844   -0.002335    0.019075   -0.139955
O    -5.892457    1.209852   -0.109188   -0.000191    0.001147   -0.010645
H    -5.011305    1.638939   -0.227881   -0.018847    0.191785   -1.433907
8
* Frequency(8)  549.8303
C    -8.211663    1.728536   -0.010960    0.000343    0.002026   -0.013706
C    -6.781636    2.201260    0.131379    0.005718   -0.057969    0.429373
H    -8.279098    0.657769   -0.267788   -0.009272    0.072381   -0.543365
H    -8.581071    2.322159   -0.881894    0.715307    0.350856   -0.260050
H    -8.868499    1.956923    0.859129   -0.719303   -0.269396   -0.325308
O    -6.446706    3.365573    0.159662   -0.002335    0.019075   -0.139955
O    -5.892477    1.209969   -0.110267   -0.000191    0.001147   -0.010645
H    -5.013215    1.658373   -0.373178   -0.018847    0.191785   -1.433907
8
* Frequency(8)  549.8303
C    -8.211636    1.728694   -0.012029    0.000343    0.002026   -0.013706
C    -6.781190    2.196737    0.164885    0.005718   -0.057969    0.429373
H    -8.279821    0.663417   -0.310189   -0.009272    0.072381   -0.543365
H    -8.525253    2.349538   -0.902187    0.715307    0.350856   -0.260050
H    -8.924629    1.935901    0.833744   -0.719303   -0.269396   -0.325308
O    -6.446888    3.367062    0.148741   -0.002335    0.019075   -0.139955
O    -5.892492    1.210058   -0.111097   -0.000191    0.001147   -0.010645
H    -5.014686    1.673339   -0.485072   -0.018847    0.191785   -1.433907
8
* Frequency(8)  549.8303
C    -8.211620    1.728788   -0.012663    0.000343    0.002026   -0.013706
C    -6.780926    2.194054    0.184757    0.005718   -0.057969    0.429373
H    -8.280250    0.666767   -0.335337   -0.009272    0.072381   -0.543365
H    -8.492147    2.365776   -0.914223    0.715307    0.350856   -0.260050
H    -8.957919    1.923432    0.818688   -0.719303   -0.269396   -0.325308
O    -6.446996    3.367945    0.142264   -0.002335    0.019075   -0.139955
O    -5.892500    1.210111   -0.111590   -0.000191    0.001147   -0.010645
H    -5.015558    1.682215   -0.551436   -0.018847    0.191785   -1.433907
8
* Frequency(8)  549.8303
C    -8.211617    1.728807   -0.012794    0.000343    0.002026   -0.013706
C    -6.780871    2.193502    0.188842    0.005718   -0.057969    0.429373
H    -8.280338    0.667456   -0.340507   -0.009272    0.072381   -0.543365
H    -8.485341    2.369114   -0.916697    0.715307    0.350856   -0.260050
H    -8.964763    1.920869    0.815593   -0.719303   -0.269396   -0.325308
O    -6.447019    3.368126    0.140932   -0.002335    0.019075   -0.139955
O    -5.892502    1.210122   -0.111691   -0.000191    0.001147   -0.010645
H    -5.015737    1.684040   -0.565078   -0.018847    0.191785   -1.433907
8
* Frequency(8)  549.8303
C    -8.211626    1.728750   -0.012406    0.000343    0.002026   -0.013706
C    -6.781033    2.195142    0.176698    0.005718   -0.057969    0.429373
H    -8.280076    0.665409   -0.325138   -0.009272    0.072381   -0.543365
H    -8.505573    2.359190   -0.909342    0.715307    0.350856   -0.260050
H    -8.944419    1.928489    0.824794   -0.719303   -0.269396   -0.325308
O    -6.446953    3.367587    0.144891   -0.002335    0.019075   -0.139955
O    -5.892497    1.210090   -0.111390   -0.000191    0.001147   -0.010645
H    -5.015204    1.678615   -0.524522   -0.018847    0.191785   -1.433907
8
* Frequency(8)  549.8303
C    -8.211648    1.728622   -0.011542    0.000343    0.002026   -0.013706
C    -6.781393    2.198795    0.149640    0.005718   -0.057969    0.429373
H    -8.279492    0.660847   -0.290897   -0.009272    0.072381   -0.543365
H    -8.550649    2.337080   -0.892954    0.715307    0.350856   -0.260050
H    -8.899090    1.945465    0.845294   -0.719303   -0.269396   -0.325308
O    -6.446805    3.366385    0.153710   -0.002335    0.019075   -0.139955
O    -5.892485    1.210017   -0.110719   -0.000191    0.001147   -0.010645
H    -5.014017    1.666529   -0.434161   -0.018847    0.191785   -1.433907
8
* Frequency(8)  549.8303
C    -8.211679    1.728438   -0.010296    0.000343    0.002026   -0.013706
C    -6.781913    2.204065    0.110601    0.005718   -0.057969    0.429373
H    -8.278649    0.654266   -0.241493   -0.009272    0.072381   -0.543365
H    -8.615686    2.305180   -0.869310    0.715307    0.350856   -0.260050
H    -8.833690    1.969959    0.874871   -0.719303   -0.269396   -0.325308
O    -6.446593    3.364650    0.166435   -0.002335    0.019075   -0.139955
O    -5.892467    1.209913   -0.109752   -0.000191    0.001147   -0.010645
H    -5.012303    1.649092   -0.303788   -0.018847    0.191785   -1.433907
8
* Frequency(8)  549.8303
C    -8.211717    1.728218   -0.008803    0.000343    0.002026   -0.013706
C    -6.782536    2.210383    0.063810    0.005718   -0.057969    0.429373
H    -8.277639    0.646379   -0.182281   -0.009272    0.072381   -0.543365
H    -8.693636    2.266946   -0.840971    0.715307    0.350856   -0.260050
H    -8.755305    1.999316    0.910321   -0.719303   -0.269396   -0.325308
O    -6.446339    3.362572    0.181686   -0.002335    0.019075   -0.139955
O    -5.892447    1.209788   -0.108592   -0.000191    0.001147   -0.010645
H    -5.010249    1.628193   -0.147530   -0.018847    0.191785   -1.433907
8
* Frequency(8)  549.8303
C    -8.211756    1.727984   -0.007224    0.000343    0.002026   -0.013706
C    -6.783195    2.217062    0.014340    0.005718   -0.057969    0.429373
H    -8.276570    0.638039   -0.119677   -0.009272    0.072381   -0.543365
H    -8.776051    2.226522   -0.811009    0.715307    0.350856   -0.260050
H    -8.672429    2.030355    0.947802   -0.719303   -0.269396   -0.325308
O    -6.446069    3.360374    0.197812   -0.002335    0.019075   -0.139955
O    -5.892424    1.209656   -0.107365   -0.000191    0.001147   -0.010645
H    -5.008078    1.606096    0.017680   -0.018847    0.191785   -1.433907
8
* Frequency(8)  549.8303
C    -8.211794    1.727763   -0.005730    0.000343    0.002026   -0.013706
C    -6.783818    2.223379   -0.032451    0.005718   -0.057969    0.429373
H    -8.275560    0.630151   -0.060464   -0.009272    0.072381   -0.543365
H    -8.854001    2.188288   -0.782670    0.715307    0.350856   -0.260050
H    -8.594044    2.059712    0.983252   -0.719303   -0.269396   -0.325308
O    -6.445815    3.358295    0.213063   -0.002335    0.019075   -0.139955
O    -5.892404    1.209531   -0.106205   -0.000191    0.001147   -0.010645
H    -5.006024    1.585196    0.173937   -0.018847    0.191785   -1.433907
8
* Frequency(8)  549.8303
C    -8.211825    1.727579   -0.004484    0.000343    0.002026   -0.013706
C    -6.784338    2.228649   -0.071490    0.005718   -0.057969    0.429373
H    -8.274717    0.623570   -0.011061   -0.009272    0.072381   -0.543365
H    -8.919038    2.156387   -0.759026    0.715307    0.350856   -0.260050
H    -8.528644    2.084206    1.012829   -0.719303   -0.269396   -0.325308
O    -6.445603    3.356561    0.225788   -0.002335    0.019075   -0.139955
O    -5.892386    1.209426   -0.105237   -0.000191    0.001147   -0.010645
H    -5.004310    1.567759    0.304311   -0.018847    0.191785   -1.433907
8
* Frequency(8)  549.8303
C    -8.211846    1.727451   -0.003620    0.000343    0.002026   -0.013706
C    -6.784698    2.232302   -0.098548    0.005718   -0.057969    0.429373
H    -8.274133    0.619009    0.023181   -0.009272    0.072381   -0.543365
H    -8.964114    2.134277   -0.742639    0.715307    0.350856   -0.260050
H    -8.483316    2.101183    1.033329   -0.719303   -0.269396   -0.325308
O    -6.445455    3.355359    0.234607   -0.002335    0.019075   -0.139955
O    -5.892374    1.209354   -0.104566   -0.000191    0.001147   -0.010645
H    -5.003123    1.555673    0.394672   -0.018847    0.191785   -1.433907
8
* Frequency(8)  549.8303
C    -8.211856    1.727394   -0.003232    0.000343    0.002026   -0.013706
C    -6.784860    2.233942   -0.110692    0.005718   -0.057969    0.429373
H    -8.273870    0.616962    0.038549   -0.009272    0.072381   -0.543365
H    -8.984346    2.124354   -0.735283    0.715307    0.350856   -0.260050
H    -8.462971    2.108802    1.042530   -0.719303   -0.269396   -0.325308
O    -6.445389    3.354819    0.238566   -0.002335    0.019075   -0.139955
O    -5.892369    1.209322   -0.104265   -0.000191    0.001147   -0.010645
H    -5.002590    1.550249    0.435228   -0.018847    0.191785   -1.433907
8
* Frequency(8)  549.8303
C    -8.211853    1.727413   -0.003363    0.000343    0.002026   -0.013706
C    -6.784806    2.233391   -0.106607    0.005718   -0.057969    0.429373
H    -8.273959    0.617651    0.033379   -0.009272    0.072381   -0.543365
H    -8.977540    2.127692   -0.737758    0.715307    0.350856   -0.260050
H    -8.469815    2.106239    1.039435   -0.719303   -0.269396   -0.325308
O    -6.445412    3.355000    0.237234   -0.002335    0.019075   -0.139955
O    -5.892371    1.209333   -0.104367   -0.000191    0.001147   -0.010645
H    -5.002769    1.552073    0.421585   -0.018847    0.191785   -1.433907
8
* Frequency(8)  549.8303
C    -8.211837    1.727507   -0.003997    0.000343    0.002026   -0.013706
C    -6.784541    2.230708   -0.086735    0.005718   -0.057969    0.429373
H    -8.274388    0.621001    0.008231   -0.009272    0.072381   -0.543365
H    -8.944435    2.143930   -0.749793    0.715307    0.350856   -0.260050
H    -8.503105    2.093771    1.024379   -0.719303   -0.269396   -0.325308
O    -6.445520    3.355883    0.230757   -0.002335    0.019075   -0.139955
O    -5.892379    1.209386   -0.104859   -0.000191    0.001147   -0.010645
H    -5.003641    1.560950    0.355221   -0.018847    0.191785   -1.433907
8
* Frequency(8)  549.8303
C    -8.211810    1.727665   -0.005067    0.000343    0.002026   -0.013706
C    -6.784095    2.226184   -0.053229    0.005718   -0.057969    0.429373
H    -8.275111    0.626649   -0.034169   -0.009272    0.072381   -0.543365
H    -8.888616    2.171309   -0.770086    0.715307    0.350856   -0.260050
H    -8.559235    2.072749    0.998994   -0.719303   -0.269396   -0.325308
O    -6.445702    3.357372    0.219836   -0.002335    0.019075   -0.139955
O    -5.892394    1.209475   -0.105690   -0.000191    0.001147   -0.010645
H    -5.005112    1.575915    0.243328   -0.018847    0.191785   -1.433907
8
* Frequency(8)  549.8303
C    -8.211775    1.727871   -0.006456    0.000343    0.002026   -0.013706
C    -6.783515    2.220310   -0.009721    0.005718   -0.057969    0.429373
H    -8.276051    0.633983   -0.089228   -0.009272    0.072381   -0.543365
H    -8.816135    2.206861   -0.796437    0.715307    0.350856   -0.260050
H    -8.632122    2.045451    0.966031   -0.719303   -0.269396   -0.325308
O    -6.445939    3.359305    0.205654   -0.002335    0.019075   -0.139955
O    -5.892414    1.209591   -0.106769   -0.000191    0.001147   -0.010645
H    -5.007022    1.595349    0.098031   -0.018847    0.191785   -1.433907
8
* Frequency(8)  549.8303
C    -8.211736    1.728101   -0.008013    0.000343    0.002026   -0.013706
C    -6.782866    2.213722    0.039075    0.005718   -0.057969    0.429373
H    -8.277104    0.642209   -0.150979   -0.009272    0.072381   -0.543365
H    -8.734844    2.246734   -0.825990    0.715307    0.350856   -0.260050
H    -8.713867    2.014836    0.929061   -0.719303   -0.269396   -0.325308
O    -6.446204    3.361473    0.189749   -0.002335    0.019075   -0.139955
O    -5.892435    1.209722   -0.107978   -0.000191    0.001147   -0.010645
H    -5.009163    1.617144   -0.064925   -0.018847    0.191785   -1.433907
