8
* (null), Energy   -1000.0000000
C    -8.211736    1.728101   -0.008013   -0.001334   -0.000665   -0.000075
C    -6.782866    2.213722    0.039075    0.006135    0.000435   -0.000023
H    -8.277104    0.642209   -0.150979   -0.002950    0.001378    0.000224
H    -8.734844    2.246734   -0.825990    0.002611   -0.001378    0.000340
H    -8.713867    2.014836    0.929061    0.002589   -0.001228   -0.000688
O    -6.446204    3.361473    0.189749   -0.000503    0.001631    0.000225
O    -5.892435    1.209722   -0.107978    0.112211    0.048241    0.004990
H    -5.009163    1.617144   -0.064925   -1.832496   -0.787596   -0.081471
8
* Frequency(23) 3734.9339
C    -8.211888    1.728025   -0.008022   -0.001334   -0.000665   -0.000075
C    -6.782168    2.213771    0.039072    0.006135    0.000435   -0.000023
H    -8.277440    0.642365   -0.150953   -0.002950    0.001378    0.000224
H    -8.734547    2.246577   -0.825951    0.002611   -0.001378    0.000340
H    -8.713573    2.014696    0.928983    0.002589   -0.001228   -0.000688
O    -6.446261    3.361658    0.189775   -0.000503    0.001631    0.000225
O    -5.879683    1.215204   -0.107411    0.112211    0.048241    0.004990
H    -5.217417    1.527638   -0.074184   -1.832496   -0.787596   -0.081471
8
* Frequency(23) 3734.9339
C    -8.212023    1.727958   -0.008029   -0.001334   -0.000665   -0.000075
C    -6.781547    2.213815    0.039070    0.006135    0.000435   -0.000023
H    -8.277739    0.642505   -0.150931   -0.002950    0.001378    0.000224
H    -8.734282    2.246438   -0.825917    0.002611   -0.001378    0.000340
H    -8.713310    2.014572    0.928914    0.002589   -0.001228   -0.000688
O    -6.446312    3.361823    0.189797   -0.000503    0.001631    0.000225
O    -5.868313    1.220092   -0.106906    0.112211    0.048241    0.004990
H    -5.403103    1.447831   -0.082439   -1.832496   -0.787596   -0.081471
8
* Frequency(23) 3734.9339
C    -8.212127    1.727906   -0.008035   -0.001334   -0.000665   -0.000075
C    -6.781068    2.213849    0.039068    0.006135    0.000435   -0.000023
H    -8.277969    0.642613   -0.150913   -0.002950    0.001378    0.000224
H    -8.734078    2.246330   -0.825890    0.002611   -0.001378    0.000340
H    -8.713108    2.014476    0.928860    0.002589   -0.001228   -0.000688
O    -6.446351    3.361951    0.189815   -0.000503    0.001631    0.000225
O    -5.859557    1.223857   -0.106516    0.112211    0.048241    0.004990
H    -5.546100    1.386372   -0.088797   -1.832496   -0.787596   -0.081471
8
* Frequency(23) 3734.9339
C    -8.212189    1.727875   -0.008039   -0.001334   -0.000665   -0.000075
C    -6.780784    2.213869    0.039067    0.006135    0.000435   -0.000023
H    -8.278105    0.642676   -0.150903   -0.002950    0.001378    0.000224
H    -8.733958    2.246266   -0.825875    0.002611   -0.001378    0.000340
H    -8.712989    2.014419    0.928828    0.002589   -0.001228   -0.000688
O    -6.446375    3.362026    0.189825   -0.000503    0.001631    0.000225
O    -5.854363    1.226089   -0.106285    0.112211    0.048241    0.004990
H    -5.630911    1.349921   -0.092567   -1.832496   -0.787596   -0.081471
8
* Frequency(23) 3734.9339
C    -8.212202    1.727869   -0.008039   -0.001334   -0.000665   -0.000075
C    -6.780726    2.213874    0.039067    0.006135    0.000435   -0.000023
H    -8.278133    0.642690   -0.150901   -0.002950    0.001378    0.000224
H    -8.733933    2.246253   -0.825871    0.002611   -0.001378    0.000340
H    -8.712964    2.014407    0.928822    0.002589   -0.001228   -0.000688
O    -6.446379    3.362042    0.189828   -0.000503    0.001631    0.000225
O    -5.853296    1.226548   -0.106238    0.112211    0.048241    0.004990
H    -5.648346    1.342427   -0.093342   -1.832496   -0.787596   -0.081471
8
* Frequency(23) 3734.9339
C    -8.212164    1.727888   -0.008037   -0.001334   -0.000665   -0.000075
C    -6.780899    2.213861    0.039068    0.006135    0.000435   -0.000023
H    -8.278050    0.642651   -0.150907   -0.002950    0.001378    0.000224
H    -8.734007    2.246292   -0.825881    0.002611   -0.001378    0.000340
H    -8.713037    2.014442    0.928841    0.002589   -0.001228   -0.000688
O    -6.446365    3.361995    0.189821   -0.000503    0.001631    0.000225
O    -5.856469    1.225184   -0.106379    0.112211    0.048241    0.004990
H    -5.596516    1.364703   -0.091038   -1.832496   -0.787596   -0.081471
8
* Frequency(23) 3734.9339
C    -8.212080    1.727930   -0.008033   -0.001334   -0.000665   -0.000075
C    -6.781286    2.213834    0.039069    0.006135    0.000435   -0.000023
H    -8.277864    0.642564   -0.150921   -0.002950    0.001378    0.000224
H    -8.734171    2.246379   -0.825903    0.002611   -0.001378    0.000340
H    -8.713200    2.014520    0.928884    0.002589   -0.001228   -0.000688
O    -6.446333    3.361893    0.189807   -0.000503    0.001631    0.000225
O    -5.863541    1.222144   -0.106693    0.112211    0.048241    0.004990
H    -5.481037    1.414336   -0.085904   -1.832496   -0.787596   -0.081471
8
* Frequency(23) 3734.9339
C    -8.211959    1.727990   -0.008026   -0.001334   -0.000665   -0.000075
C    -6.781844    2.213794    0.039071    0.006135    0.000435   -0.000023
H    -8.277596    0.642438   -0.150941   -0.002950    0.001378    0.000224
H    -8.734409    2.246504   -0.825933    0.002611   -0.001378    0.000340
H    -8.713436    2.014631    0.928947    0.002589   -0.001228   -0.000688
O    -6.446288    3.361744    0.189787   -0.000503    0.001631    0.000225
O    -5.873743    1.217758   -0.107147    0.112211    0.048241    0.004990
H    -5.314424    1.485945   -0.078497   -1.832496   -0.787596   -0.081471
8
* Frequency(23) 3734.9339
C    -8.211813    1.728063   -0.008017   -0.001334   -0.000665   -0.000075
C    -6.782512    2.213747    0.039074    0.006135    0.000435   -0.000023
H    -8.277274    0.642288   -0.150966   -0.002950    0.001378    0.000224
H    -8.734693    2.246654   -0.825970    0.002611   -0.001378    0.000340
H    -8.713718    2.014765    0.929022    0.002589   -0.001228   -0.000688
O    -6.446233    3.361567    0.189762   -0.000503    0.001631    0.000225
O    -5.885971    1.212501   -0.107691    0.112211    0.048241    0.004990
H    -5.114730    1.571772   -0.069619   -1.832496   -0.787596   -0.081471
8
* Frequency(23) 3734.9339
C    -8.211660    1.728139   -0.008009   -0.001334   -0.000665   -0.000075
C    -6.783219    2.213697    0.039076    0.006135    0.000435   -0.000023
H    -8.276934    0.642129   -0.150992   -0.002950    0.001378    0.000224
H    -8.734994    2.246813   -0.826010    0.002611   -0.001378    0.000340
H    -8.714016    2.014907    0.929101    0.002589   -0.001228   -0.000688
O    -6.446175    3.361379    0.189736   -0.000503    0.001631    0.000225
O    -5.898900    1.206943   -0.108266    0.112211    0.048241    0.004990
H    -4.903597    1.662516   -0.060232   -1.832496   -0.787596   -0.081471
8
* Frequency(23) 3734.9339
C    -8.211514    1.728212   -0.008001   -0.001334   -0.000665   -0.000075
C    -6.783888    2.213650    0.039079    0.006135    0.000435   -0.000023
H    -8.276613    0.641979   -0.151016   -0.002950    0.001378    0.000224
H    -8.735279    2.246963   -0.826047    0.002611   -0.001378    0.000340
H    -8.714298    2.015040    0.929176    0.002589   -0.001228   -0.000688
O    -6.446120    3.361201    0.189712   -0.000503    0.001631    0.000225
O    -5.911128    1.201686   -0.108809    0.112211    0.048241    0.004990
H    -4.703903    1.748343   -0.051354   -1.832496   -0.787596   -0.081471
8
* Frequency(23) 3734.9339
C    -8.211393    1.728272   -0.007994   -0.001334   -0.000665   -0.000075
C    -6.784445    2.213610    0.039081    0.006135    0.000435   -0.000023
H    -8.276345    0.641854   -0.151037   -0.002950    0.001378    0.000224
H    -8.735516    2.247089   -0.826078    0.002611   -0.001378    0.000340
H    -8.714534    2.015152    0.929239    0.002589   -0.001228   -0.000688
O    -6.446075    3.361053    0.189691   -0.000503    0.001631    0.000225
O    -5.921330    1.197300   -0.109263    0.112211    0.048241    0.004990
H    -4.537290    1.819953   -0.043946   -1.832496   -0.787596   -0.081471
8
* Frequency(23) 3734.9339
C    -8.211309    1.728314   -0.007989   -0.001334   -0.000665   -0.000075
C    -6.784832    2.213583    0.039082    0.006135    0.000435   -0.000023
H    -8.276159    0.641767   -0.151051   -0.002950    0.001378    0.000224
H    -8.735680    2.247175   -0.826099    0.002611   -0.001378    0.000340
H    -8.714697    2.015229    0.929282    0.002589   -0.001228   -0.000688
O    -6.446043    3.360950    0.189677   -0.000503    0.001631    0.000225
O    -5.928402    1.194260   -0.109578    0.112211    0.048241    0.004990
H    -4.421811    1.869585   -0.038812   -1.832496   -0.787596   -0.081471
8
* Frequency(23) 3734.9339
C    -8.211271    1.728333   -0.007987   -0.001334   -0.000665   -0.000075
C    -6.785005    2.213571    0.039083    0.006135    0.000435   -0.000023
H    -8.276075    0.641728   -0.151057   -0.002950    0.001378    0.000224
H    -8.735754    2.247214   -0.826109    0.002611   -0.001378    0.000340
H    -8.714770    2.015264    0.929301    0.002589   -0.001228   -0.000688
O    -6.446029    3.360904    0.189670   -0.000503    0.001631    0.000225
O    -5.931575    1.192895   -0.109719    0.112211    0.048241    0.004990
H    -4.369981    1.891861   -0.036508   -1.832496   -0.787596   -0.081471
8
* Frequency(23) 3734.9339
C    -8.211284    1.728326   -0.007988   -0.001334   -0.000665   -0.000075
C    -6.784947    2.213575    0.039083    0.006135    0.000435   -0.000023
H    -8.276104    0.641741   -0.151055   -0.002950    0.001378    0.000224
H    -8.735729    2.247201   -0.826105    0.002611   -0.001378    0.000340
H    -8.714746    2.015253    0.929295    0.002589   -0.001228   -0.000688
O    -6.446034    3.360919    0.189673   -0.000503    0.001631    0.000225
O    -5.930508    1.193354   -0.109671    0.112211    0.048241    0.004990
H    -4.387416    1.884368   -0.037283   -1.832496   -0.787596   -0.081471
8
* Frequency(23) 3734.9339
C    -8.211345    1.728296   -0.007991   -0.001334   -0.000665   -0.000075
C    -6.784663    2.213595    0.039082    0.006135    0.000435   -0.000023
H    -8.276240    0.641805   -0.151045   -0.002950    0.001378    0.000224
H    -8.735609    2.247137   -0.826090    0.002611   -0.001378    0.000340
H    -8.714626    2.015196    0.929263    0.002589   -0.001228   -0.000688
O    -6.446057    3.360995    0.189683   -0.000503    0.001631    0.000225
O    -5.925314    1.195587   -0.109440    0.112211    0.048241    0.004990
H    -4.472227    1.847916   -0.041054   -1.832496   -0.787596   -0.081471
8
* Frequency(23) 3734.9339
C    -8.211450    1.728244   -0.007997   -0.001334   -0.000665   -0.000075
C    -6.784184    2.213629    0.039080    0.006135    0.000435   -0.000023
H    -8.276470    0.641913   -0.151027   -0.002950    0.001378    0.000224
H    -8.735405    2.247030   -0.826063    0.002611   -0.001378    0.000340
H    -8.714424    2.015100    0.929209    0.002589   -0.001228   -0.000688
O    -6.446096    3.361122    0.189701   -0.000503    0.001631    0.000225
O    -5.916558    1.199351   -0.109051    0.112211    0.048241    0.004990
H    -4.615224    1.786457   -0.047411   -1.832496   -0.787596   -0.081471
8
* Frequency(23) 3734.9339
C    -8.211585    1.728176   -0.008005   -0.001334   -0.000665   -0.000075
C    -6.783563    2.213673    0.039078    0.006135    0.000435   -0.000023
H    -8.276769    0.642052   -0.151004   -0.002950    0.001378    0.000224
H    -8.735140    2.246890   -0.826029    0.002611   -0.001378    0.000340
H    -8.714161    2.014975    0.929140    0.002589   -0.001228   -0.000688
O    -6.446147    3.361287    0.189723   -0.000503    0.001631    0.000225
O    -5.905188    1.204240   -0.108545    0.112211    0.048241    0.004990
H    -4.800910    1.706650   -0.055666   -1.832496   -0.787596   -0.081471
8
* Frequency(23) 3734.9339
C    -8.211736    1.728101   -0.008013   -0.001334   -0.000665   -0.000075
C    -6.782866    2.213722    0.039075    0.006135    0.000435   -0.000023
H    -8.277104    0.642209   -0.150979   -0.002950    0.001378    0.000224
H    -8.734844    2.246734   -0.825990    0.002611   -0.001378    0.000340
H    -8.713867    2.014836    0.929061    0.002589   -0.001228   -0.000688
O    -6.446204    3.361473    0.189749   -0.000503    0.001631    0.000225
O    -5.892435    1.209722   -0.107978    0.112211    0.048241    0.004990
H    -5.009163    1.617144   -0.064925   -1.832496   -0.787596   -0.081471
