8
* (null), Energy   -1000.0000000
C    -8.211736    1.728101   -0.008013   -0.042444    0.183993    0.020850
C    -6.782866    2.213722    0.039075   -0.003108    0.002844    0.000398
H    -8.277104    0.642209   -0.150979   -0.094447   -1.720796   -0.227339
H    -8.734844    2.246734   -0.825990    0.334915   -0.321235    0.545281
H    -8.713867    2.014836    0.929061    0.292841   -0.151060   -0.566461
O    -6.446204    3.361473    0.189749   -0.000057   -0.001077   -0.000143
O    -5.892435    1.209722   -0.107978    0.000604   -0.000905   -0.000133
H    -5.009163    1.617144   -0.064925    0.000780   -0.001757   -0.000277
8
* Frequency(22) 3168.8163
C    -8.216560    1.749011   -0.005644   -0.042444    0.183993    0.020850
C    -6.783219    2.214045    0.039120   -0.003108    0.002844    0.000398
H    -8.287838    0.446649   -0.176815   -0.094447   -1.720796   -0.227339
H    -8.696782    2.210227   -0.764022    0.334915   -0.321235    0.545281
H    -8.680587    1.997669    0.864686    0.292841   -0.151060   -0.566461
O    -6.446211    3.361350    0.189733   -0.000057   -0.001077   -0.000143
O    -5.892367    1.209619   -0.107993    0.000604   -0.000905   -0.000133
H    -5.009075    1.616945   -0.064957    0.000780   -0.001757   -0.000277
8
* Frequency(22) 3168.8163
C    -8.220861    1.767655   -0.003531   -0.042444    0.183993    0.020850
C    -6.783534    2.214334    0.039160   -0.003108    0.002844    0.000398
H    -8.297408    0.272282   -0.199851   -0.094447   -1.720796   -0.227339
H    -8.662845    2.177676   -0.708769    0.334915   -0.321235    0.545281
H    -8.650914    1.982362    0.807287    0.292841   -0.151060   -0.566461
O    -6.446216    3.361241    0.189718   -0.000057   -0.001077   -0.000143
O    -5.892306    1.209527   -0.108007    0.000604   -0.000905   -0.000133
H    -5.008996    1.616767   -0.064985    0.000780   -0.001757   -0.000277
8
* Frequency(22) 3168.8163
C    -8.224173    1.782012   -0.001904   -0.042444    0.183993    0.020850
C    -6.783776    2.214556    0.039191   -0.003108    0.002844    0.000398
H    -8.304778    0.138002   -0.217591   -0.094447   -1.720796   -0.227339
H    -8.636711    2.152609   -0.666218    0.334915   -0.321235    0.545281
H    -8.628062    1.970574    0.763084    0.292841   -0.151060   -0.566461
O    -6.446221    3.361157    0.189707   -0.000057   -0.001077   -0.000143
O    -5.892258    1.209457   -0.108017    0.000604   -0.000905   -0.000133
H    -5.008935    1.616629   -0.065006    0.000780   -0.001757   -0.000277
8
* Frequency(22) 3168.8163
C    -8.226137    1.790528   -0.000939   -0.042444    0.183993    0.020850
C    -6.783920    2.214687    0.039210   -0.003108    0.002844    0.000398
H    -8.309149    0.058360   -0.228113   -0.094447   -1.720796   -0.227339
H    -8.621210    2.137742   -0.640982    0.334915   -0.321235    0.545281
H    -8.614509    1.963583    0.736867    0.292841   -0.151060   -0.566461
O    -6.446223    3.361107    0.189701   -0.000057   -0.001077   -0.000143
O    -5.892230    1.209415   -0.108024    0.000604   -0.000905   -0.000133
H    -5.008899    1.616548   -0.065019    0.000780   -0.001757   -0.000277
8
* Frequency(22) 3168.8163
C    -8.226541    1.792278   -0.000741   -0.042444    0.183993    0.020850
C    -6.783950    2.214714    0.039214   -0.003108    0.002844    0.000398
H    -8.310048    0.041988   -0.230276   -0.094447   -1.720796   -0.227339
H    -8.618024    2.134685   -0.635794    0.334915   -0.321235    0.545281
H    -8.611723    1.962145    0.731477    0.292841   -0.151060   -0.566461
O    -6.446224    3.361097    0.189699   -0.000057   -0.001077   -0.000143
O    -5.892225    1.209406   -0.108025    0.000604   -0.000905   -0.000133
H    -5.008891    1.616531   -0.065022    0.000780   -0.001757   -0.000277
8
* Frequency(22) 3168.8163
C    -8.225340    1.787074   -0.001330   -0.042444    0.183993    0.020850
C    -6.783862    2.214634    0.039202   -0.003108    0.002844    0.000398
H    -8.307377    0.090658   -0.223846   -0.094447   -1.720796   -0.227339
H    -8.627496    2.143771   -0.651216    0.334915   -0.321235    0.545281
H    -8.620005    1.966418    0.747499    0.292841   -0.151060   -0.566461
O    -6.446222    3.361128    0.189703   -0.000057   -0.001077   -0.000143
O    -5.892242    1.209432   -0.108021    0.000604   -0.000905   -0.000133
H    -5.008913    1.616581   -0.065014    0.000780   -0.001757   -0.000277
8
* Frequency(22) 3168.8163
C    -8.222666    1.775480   -0.002644   -0.042444    0.183993    0.020850
C    -6.783666    2.214455    0.039177   -0.003108    0.002844    0.000398
H    -8.301425    0.199098   -0.209519   -0.094447   -1.720796   -0.227339
H    -8.648602    2.164015   -0.685578    0.334915   -0.321235    0.545281
H    -8.638459    1.975937    0.783196    0.292841   -0.151060   -0.566461
O    -6.446219    3.361195    0.189712   -0.000057   -0.001077   -0.000143
O    -5.892280    1.209489   -0.108013    0.000604   -0.000905   -0.000133
H    -5.008963    1.616692   -0.064996    0.000780   -0.001757   -0.000277
8
* Frequency(22) 3168.8163
C    -8.218807    1.758751   -0.004540   -0.042444    0.183993    0.020850
C    -6.783383    2.214196    0.039141   -0.003108    0.002844    0.000398
H    -8.292838    0.355556   -0.188849   -0.094447   -1.720796   -0.227339
H    -8.679053    2.193222   -0.735156    0.334915   -0.321235    0.545281
H    -8.665085    1.989672    0.834699    0.292841   -0.151060   -0.566461
O    -6.446214    3.361293    0.189725   -0.000057   -0.001077   -0.000143
O    -5.892335    1.209571   -0.108001    0.000604   -0.000905   -0.000133
H    -5.009034    1.616852   -0.064971    0.000780   -0.001757   -0.000277
8
* Frequency(22) 3168.8163
C    -8.214181    1.738700   -0.006812   -0.042444    0.183993    0.020850
C    -6.783045    2.213886    0.039098   -0.003108    0.002844    0.000398
H    -8.282545    0.543077   -0.164075   -0.094447   -1.720796   -0.227339
H    -8.715550    2.228228   -0.794577    0.334915   -0.321235    0.545281
H    -8.696997    2.006134    0.896429    0.292841   -0.151060   -0.566461
O    -6.446207    3.361411    0.189741   -0.000057   -0.001077   -0.000143
O    -5.892401    1.209670   -0.107986    0.000604   -0.000905   -0.000133
H    -5.009119    1.617043   -0.064941    0.000780   -0.001757   -0.000277
8
* Frequency(22) 3168.8163
C    -8.209291    1.717501   -0.009214   -0.042444    0.183993    0.020850
C    -6.782687    2.213558    0.039052   -0.003108    0.002844    0.000398
H    -8.271663    0.741341   -0.137882   -0.094447   -1.720796   -0.227339
H    -8.754137    2.265240   -0.857403    0.334915   -0.321235    0.545281
H    -8.730737    2.023538    0.961694    0.292841   -0.151060   -0.566461
O    -6.446201    3.361535    0.189757   -0.000057   -0.001077   -0.000143
O    -5.892470    1.209774   -0.107971    0.000604   -0.000905   -0.000133
H    -5.009208    1.617245   -0.064909    0.000780   -0.001757   -0.000277
8
* Frequency(22) 3168.8163
C    -8.204666    1.697451   -0.011486   -0.042444    0.183993    0.020850
C    -6.782348    2.213248    0.039009   -0.003108    0.002844    0.000398
H    -8.261371    0.928862   -0.113108   -0.094447   -1.720796   -0.227339
H    -8.790634    2.300246   -0.916824    0.334915   -0.321235    0.545281
H    -8.762649    2.040000    1.023424    0.292841   -0.151060   -0.566461
O    -6.446195    3.361652    0.189773   -0.000057   -0.001077   -0.000143
O    -5.892536    1.209873   -0.107956    0.000604   -0.000905   -0.000133
H    -5.009293    1.617437   -0.064879    0.000780   -0.001757   -0.000277
8
* Frequency(22) 3168.8163
C    -8.200807    1.680722   -0.013382   -0.042444    0.183993    0.020850
C    -6.782065    2.212990    0.038973   -0.003108    0.002844    0.000398
H    -8.252784    1.085320   -0.092438   -0.094447   -1.720796   -0.227339
H    -8.821085    2.329453   -0.966402    0.334915   -0.321235    0.545281
H    -8.789275    2.053734    1.074927    0.292841   -0.151060   -0.566461
O    -6.446189    3.361750    0.189786   -0.000057   -0.001077   -0.000143
O    -5.892591    1.209955   -0.107944    0.000604   -0.000905   -0.000133
H    -5.009364    1.617596   -0.064854    0.000780   -0.001757   -0.000277
8
* Frequency(22) 3168.8163
C    -8.198132    1.669127   -0.014696   -0.042444    0.183993    0.020850
C    -6.781870    2.212810    0.038948   -0.003108    0.002844    0.000398
H    -8.246832    1.193759   -0.078112   -0.094447   -1.720796   -0.227339
H    -8.842191    2.349696   -1.000764    0.334915   -0.321235    0.545281
H    -8.807729    2.063254    1.110624    0.292841   -0.151060   -0.566461
O    -6.446186    3.361818    0.189795   -0.000057   -0.001077   -0.000143
O    -5.892629    1.210012   -0.107936    0.000604   -0.000905   -0.000133
H    -5.009414    1.617707   -0.064836    0.000780   -0.001757   -0.000277
8
* Frequency(22) 3168.8163
C    -8.196932    1.663923   -0.015286   -0.042444    0.183993    0.020850
C    -6.781782    2.212730    0.038936   -0.003108    0.002844    0.000398
H    -8.244161    1.242430   -0.071682   -0.094447   -1.720796   -0.227339
H    -8.851664    2.358782   -1.016187    0.334915   -0.321235    0.545281
H    -8.816011    2.067526    1.126646    0.292841   -0.151060   -0.566461
O    -6.446184    3.361848    0.189799   -0.000057   -0.001077   -0.000143
O    -5.892646    1.210038   -0.107932    0.000604   -0.000905   -0.000133
H    -5.009436    1.617757   -0.064829    0.000780   -0.001757   -0.000277
8
* Frequency(22) 3168.8163
C    -8.197336    1.665674   -0.015087   -0.042444    0.183993    0.020850
C    -6.781811    2.212757    0.038940   -0.003108    0.002844    0.000398
H    -8.245059    1.226058   -0.073845   -0.094447   -1.720796   -0.227339
H    -8.848477    2.355726   -1.010998    0.334915   -0.321235    0.545281
H    -8.813225    2.066089    1.121256    0.292841   -0.151060   -0.566461
O    -6.446185    3.361838    0.189797   -0.000057   -0.001077   -0.000143
O    -5.892641    1.210029   -0.107933    0.000604   -0.000905   -0.000133
H    -5.009428    1.617740   -0.064831    0.000780   -0.001757   -0.000277
8
* Frequency(22) 3168.8163
C    -8.199300    1.674189   -0.014122   -0.042444    0.183993    0.020850
C    -6.781955    2.212889    0.038958   -0.003108    0.002844    0.000398
H    -8.249431    1.146416   -0.084367   -0.094447   -1.720796   -0.227339
H    -8.832977    2.340858   -0.985762    0.334915   -0.321235    0.545281
H    -8.799672    2.059098    1.095039    0.292841   -0.151060   -0.566461
O    -6.446187    3.361788    0.189791   -0.000057   -0.001077   -0.000143
O    -5.892613    1.209987   -0.107939    0.000604   -0.000905   -0.000133
H    -5.009392    1.617659   -0.064844    0.000780   -0.001757   -0.000277
8
* Frequency(22) 3168.8163
C    -8.202612    1.688547   -0.012495   -0.042444    0.183993    0.020850
C    -6.782198    2.213111    0.038989   -0.003108    0.002844    0.000398
H    -8.256801    1.012136   -0.102107   -0.094447   -1.720796   -0.227339
H    -8.806842    2.315791   -0.943212    0.334915   -0.321235    0.545281
H    -8.776820    2.047310    1.050836    0.292841   -0.151060   -0.566461
O    -6.446192    3.361704    0.189780   -0.000057   -0.001077   -0.000143
O    -5.892565    1.209916   -0.107950    0.000604   -0.000905   -0.000133
H    -5.009331    1.617522   -0.064866    0.000780   -0.001757   -0.000277
8
* Frequency(22) 3168.8163
C    -8.206913    1.707191   -0.010383   -0.042444    0.183993    0.020850
C    -6.782512    2.213399    0.039030   -0.003108    0.002844    0.000398
H    -8.266371    0.837768   -0.125143   -0.094447   -1.720796   -0.227339
H    -8.772905    2.283241   -0.887958    0.334915   -0.321235    0.545281
H    -8.747147    2.032003    0.993437    0.292841   -0.151060   -0.566461
O    -6.446198    3.361595    0.189765   -0.000057   -0.001077   -0.000143
O    -5.892504    1.209825   -0.107963    0.000604   -0.000905   -0.000133
H    -5.009252    1.617344   -0.064894    0.000780   -0.001757   -0.000277
8
* Frequency(22) 3168.8163
C    -8.211736    1.728101   -0.008013   -0.042444    0.183993    0.020850
C    -6.782866    2.213722    0.039075   -0.003108    0.002844    0.000398
H    -8.277104    0.642209   -0.150979   -0.094447   -1.720796   -0.227339
H    -8.734844    2.246734   -0.825990    0.334915   -0.321235    0.545281
H    -8.713867    2.014836    0.929061    0.292841   -0.151060   -0.566461
O    -6.446204    3.361473    0.189749   -0.000057   -0.001077   -0.000143
O    -5.892435    1.209722   -0.107978    0.000604   -0.000905   -0.000133
H    -5.009163    1.617144   -0.064925    0.000780   -0.001757   -0.000277
