8
* (null), Energy   -1000.0000000
C    -8.211736    1.728101   -0.008013   -0.579890   -0.080285   -0.003631
C    -6.782866    2.213722    0.039075    0.203604    0.214546    0.027311
H    -8.277104    0.642209   -0.150979   -0.337919   -0.115147   -0.010753
H    -8.734844    2.246734   -0.825990   -0.827428   -0.399262   -0.064770
H    -8.713867    2.014836    0.929061   -0.828392   -0.406017   -0.021863
O    -6.446204    3.361473    0.189749    0.023979    0.344689    0.045914
O    -5.892435    1.209722   -0.107978    0.343712   -0.325663   -0.048857
H    -5.009163    1.617144   -0.064925    0.641435   -0.981376   -0.138058
8
* Frequency(11)  868.9751
C    -8.277638    1.718977   -0.008426   -0.579890   -0.080285   -0.003631
C    -6.759727    2.238104    0.042179    0.203604    0.214546    0.027311
H    -8.315507    0.629123   -0.152201   -0.337919   -0.115147   -0.010753
H    -8.828876    2.201360   -0.833351   -0.827428   -0.399262   -0.064770
H    -8.808010    1.968694    0.926577   -0.828392   -0.406017   -0.021863
O    -6.443479    3.400645    0.194967    0.023979    0.344689    0.045914
O    -5.853374    1.172712   -0.113531    0.343712   -0.325663   -0.048857
H    -4.936268    1.505616   -0.080615    0.641435   -0.981376   -0.138058
8
* Frequency(11)  868.9751
C    -8.336398    1.710842   -0.008794   -0.579890   -0.080285   -0.003631
C    -6.739096    2.259844    0.044946    0.203604    0.214546    0.027311
H    -8.349748    0.617455   -0.153291   -0.337919   -0.115147   -0.010753
H    -8.912719    2.160903   -0.839914   -0.827428   -0.399262   -0.064770
H    -8.891950    1.927553    0.924362   -0.828392   -0.406017   -0.021863
O    -6.441049    3.435572    0.199619    0.023979    0.344689    0.045914
O    -5.818546    1.139713   -0.118481    0.343712   -0.325663   -0.048857
H    -4.871271    1.406173   -0.094604    0.641435   -0.981376   -0.138058
8
* Frequency(11)  868.9751
C    -8.381649    1.704577   -0.009077   -0.579890   -0.080285   -0.003631
C    -6.723208    2.276586    0.047077    0.203604    0.214546    0.027311
H    -8.376117    0.608470   -0.154130   -0.337919   -0.115147   -0.010753
H    -8.977287    2.129747   -0.844968   -0.827428   -0.399262   -0.064770
H    -8.956593    1.895870    0.922656   -0.828392   -0.406017   -0.021863
O    -6.439178    3.462469    0.203202    0.023979    0.344689    0.045914
O    -5.791725    1.114300   -0.122294    0.343712   -0.325663   -0.048857
H    -4.821218    1.329593   -0.105377    0.641435   -0.981376   -0.138058
8
* Frequency(11)  868.9751
C    -8.408487    1.700861   -0.009245   -0.579890   -0.080285   -0.003631
C    -6.713785    2.286516    0.048341    0.203604    0.214546    0.027311
H    -8.391757    0.603141   -0.154627   -0.337919   -0.115147   -0.010753
H    -9.015582    2.111268   -0.847966   -0.827428   -0.399262   -0.064770
H    -8.994932    1.877078    0.921644   -0.828392   -0.406017   -0.021863
O    -6.438068    3.478422    0.205327    0.023979    0.344689    0.045914
O    -5.775817    1.099228   -0.124555    0.343712   -0.325663   -0.048857
H    -4.791531    1.284173   -0.111767    0.641435   -0.981376   -0.138058
8
* Frequency(11)  868.9751
C    -8.414005    1.700097   -0.009280   -0.579890   -0.080285   -0.003631
C    -6.711847    2.288557    0.048601    0.203604    0.214546    0.027311
H    -8.394972    0.602045   -0.154730   -0.337919   -0.115147   -0.010753
H    -9.023454    2.107469   -0.848582   -0.827428   -0.399262   -0.064770
H    -9.002814    1.873215    0.921436   -0.828392   -0.406017   -0.021863
O    -6.437840    3.481702    0.205764    0.023979    0.344689    0.045914
O    -5.772547    1.096129   -0.125020    0.343712   -0.325663   -0.048857
H    -4.785428    1.274836   -0.113080    0.641435   -0.981376   -0.138058
8
* Frequency(11)  868.9751
C    -8.397603    1.702368   -0.009177   -0.579890   -0.080285   -0.003631
C    -6.717606    2.282489    0.047829    0.203604    0.214546    0.027311
H    -8.385414    0.605302   -0.154425   -0.337919   -0.115147   -0.010753
H    -9.000051    2.118762   -0.846750   -0.827428   -0.399262   -0.064770
H    -8.979384    1.884699    0.922054   -0.828392   -0.406017   -0.021863
O    -6.438518    3.471952    0.204465    0.023979    0.344689    0.045914
O    -5.782269    1.105340   -0.123638    0.343712   -0.325663   -0.048857
H    -4.803570    1.302593   -0.109176    0.641435   -0.981376   -0.138058
8
* Frequency(11)  868.9751
C    -8.361060    1.707427   -0.008948   -0.579890   -0.080285   -0.003631
C    -6.730437    2.268968    0.046108    0.203604    0.214546    0.027311
H    -8.364120    0.612558   -0.153748   -0.337919   -0.115147   -0.010753
H    -8.947909    2.143923   -0.842669   -0.827428   -0.399262   -0.064770
H    -8.927181    1.910285    0.923432   -0.828392   -0.406017   -0.021863
O    -6.440029    3.450231    0.201572    0.023979    0.344689    0.045914
O    -5.803928    1.125863   -0.120559    0.343712   -0.325663   -0.048857
H    -4.843992    1.364437   -0.100475    0.641435   -0.981376   -0.138058
8
* Frequency(11)  868.9751
C    -8.308335    1.714727   -0.008618   -0.579890   -0.080285   -0.003631
C    -6.748949    2.249462    0.043624    0.203604    0.214546    0.027311
H    -8.333395    0.623027   -0.152770   -0.337919   -0.115147   -0.010753
H    -8.872678    2.180224   -0.836780   -0.827428   -0.399262   -0.064770
H    -8.851862    1.947201    0.925420   -0.828392   -0.406017   -0.021863
O    -6.442210    3.418891    0.197397    0.023979    0.344689    0.045914
O    -5.835179    1.155472   -0.116117    0.343712   -0.325663   -0.048857
H    -4.902312    1.453665   -0.087923    0.641435   -0.981376   -0.138058
8
* Frequency(11)  868.9751
C    -8.245143    1.723476   -0.008222   -0.579890   -0.080285   -0.003631
C    -6.771136    2.226082    0.040648    0.203604    0.214546    0.027311
H    -8.296571    0.635575   -0.151598   -0.337919   -0.115147   -0.010753
H    -8.782510    2.223733   -0.829721   -0.827428   -0.399262   -0.064770
H    -8.761589    1.991446    0.927802   -0.828392   -0.406017   -0.021863
O    -6.444823    3.381329    0.192394    0.023979    0.344689    0.045914
O    -5.872635    1.190961   -0.110793    0.343712   -0.325663   -0.048857
H    -4.972212    1.560609   -0.072878    0.641435   -0.981376   -0.138058
8
* Frequency(11)  868.9751
C    -8.178330    1.732726   -0.007804   -0.579890   -0.080285   -0.003631
C    -6.794595    2.201362    0.037502    0.203604    0.214546    0.027311
H    -8.257638    0.648842   -0.150359   -0.337919   -0.115147   -0.010753
H    -8.687177    2.269735   -0.822259   -0.827428   -0.399262   -0.064770
H    -8.666145    2.038226    0.930321   -0.828392   -0.406017   -0.021863
O    -6.447585    3.341616    0.187104    0.023979    0.344689    0.045914
O    -5.912236    1.228483   -0.105164    0.343712   -0.325663   -0.048857
H    -5.046115    1.673679   -0.056972    0.641435   -0.981376   -0.138058
8
* Frequency(11)  868.9751
C    -8.115137    1.741475   -0.007408   -0.579890   -0.080285   -0.003631
C    -6.816782    2.177983    0.034526    0.203604    0.214546    0.027311
H    -8.220813    0.661390   -0.149188   -0.337919   -0.115147   -0.010753
H    -8.597009    2.313243   -0.815200   -0.827428   -0.399262   -0.064770
H    -8.575872    2.082471    0.932703   -0.828392   -0.406017   -0.021863
O    -6.450199    3.304054    0.182101    0.023979    0.344689    0.045914
O    -5.949692    1.263971   -0.099840    0.343712   -0.325663   -0.048857
H    -5.116015    1.780623   -0.041927    0.641435   -0.981376   -0.138058
8
* Frequency(11)  868.9751
C    -8.062413    1.748774   -0.007078   -0.579890   -0.080285   -0.003631
C    -6.835294    2.158476    0.032042    0.203604    0.214546    0.027311
H    -8.190089    0.671860   -0.148210   -0.337919   -0.115147   -0.010753
H    -8.521778    2.349545   -0.809311   -0.827428   -0.399262   -0.064770
H    -8.500553    2.119387    0.934691   -0.828392   -0.406017   -0.021863
O    -6.452379    3.272714    0.177926    0.023979    0.344689    0.045914
O    -5.980943    1.293581   -0.095397    0.343712   -0.325663   -0.048857
H    -5.174335    1.869852   -0.029375    0.641435   -0.981376   -0.138058
8
* Frequency(11)  868.9751
C    -8.025870    1.753834   -0.006849   -0.579890   -0.080285   -0.003631
C    -6.848125    2.144956    0.030321    0.203604    0.214546    0.027311
H    -8.168795    0.679116   -0.147532   -0.337919   -0.115147   -0.010753
H    -8.469636    2.374705   -0.805230   -0.827428   -0.399262   -0.064770
H    -8.448350    2.144973    0.936069   -0.828392   -0.406017   -0.021863
O    -6.453890    3.250993    0.175033    0.023979    0.344689    0.045914
O    -6.002602    1.314103   -0.092319    0.343712   -0.325663   -0.048857
H    -5.214757    1.931695   -0.020675    0.641435   -0.981376   -0.138058
8
* Frequency(11)  868.9751
C    -8.009468    1.756104   -0.006747   -0.579890   -0.080285   -0.003631
C    -6.853884    2.138887    0.029549    0.203604    0.214546    0.027311
H    -8.159237    0.682373   -0.147228   -0.337919   -0.115147   -0.010753
H    -8.446233    2.385998   -0.803398   -0.827428   -0.399262   -0.064770
H    -8.424920    2.156456    0.936687   -0.828392   -0.406017   -0.021863
O    -6.454568    3.241244    0.173734    0.023979    0.344689    0.045914
O    -6.012324    1.323314   -0.090937    0.343712   -0.325663   -0.048857
H    -5.232899    1.959453   -0.016770    0.641435   -0.981376   -0.138058
8
* Frequency(11)  868.9751
C    -8.014985    1.755341   -0.006781   -0.579890   -0.080285   -0.003631
C    -6.851947    2.140929    0.029809    0.203604    0.214546    0.027311
H    -8.162452    0.681277   -0.147330   -0.337919   -0.115147   -0.010753
H    -8.454106    2.382199   -0.804014   -0.827428   -0.399262   -0.064770
H    -8.432802    2.152593    0.936479   -0.828392   -0.406017   -0.021863
O    -6.454340    3.244523    0.174171    0.023979    0.344689    0.045914
O    -6.009054    1.320216   -0.091402    0.343712   -0.325663   -0.048857
H    -5.226796    1.950115   -0.018083    0.641435   -0.981376   -0.138058
8
* Frequency(11)  868.9751
C    -8.041824    1.751625   -0.006949   -0.579890   -0.080285   -0.003631
C    -6.842523    2.150858    0.031073    0.203604    0.214546    0.027311
H    -8.178091    0.675948   -0.147828   -0.337919   -0.115147   -0.010753
H    -8.492400    2.363721   -0.807012   -0.827428   -0.399262   -0.064770
H    -8.471141    2.133802    0.935467   -0.828392   -0.406017   -0.021863
O    -6.453230    3.260476    0.176296    0.023979    0.344689    0.045914
O    -5.993146    1.305144   -0.093663    0.343712   -0.325663   -0.048857
H    -5.197109    1.904695   -0.024473    0.641435   -0.981376   -0.138058
8
* Frequency(11)  868.9751
C    -8.087075    1.745360   -0.007233   -0.579890   -0.080285   -0.003631
C    -6.826635    2.167600    0.033204    0.203604    0.214546    0.027311
H    -8.204461    0.666963   -0.148667   -0.337919   -0.115147   -0.010753
H    -8.556968    2.332565   -0.812066   -0.827428   -0.399262   -0.064770
H    -8.535784    2.102119    0.933761   -0.828392   -0.406017   -0.021863
O    -6.451359    3.287373    0.179879    0.023979    0.344689    0.045914
O    -5.966325    1.279731   -0.097475    0.343712   -0.325663   -0.048857
H    -5.147056    1.828115   -0.035246    0.641435   -0.981376   -0.138058
8
* Frequency(11)  868.9751
C    -8.145835    1.737225   -0.007600   -0.579890   -0.080285   -0.003631
C    -6.806004    2.189340    0.035971    0.203604    0.214546    0.027311
H    -8.238702    0.655295   -0.149757   -0.337919   -0.115147   -0.010753
H    -8.640811    2.292108   -0.818629   -0.827428   -0.399262   -0.064770
H    -8.619725    2.060978    0.931546   -0.828392   -0.406017   -0.021863
O    -6.448929    3.322301    0.184531    0.023979    0.344689    0.045914
O    -5.931497    1.246732   -0.102426    0.343712   -0.325663   -0.048857
H    -5.082059    1.728672   -0.049236    0.641435   -0.981376   -0.138058
8
* Frequency(11)  868.9751
C    -8.211736    1.728101   -0.008013   -0.579890   -0.080285   -0.003631
C    -6.782866    2.213722    0.039075    0.203604    0.214546    0.027311
H    -8.277104    0.642209   -0.150979   -0.337919   -0.115147   -0.010753
H    -8.734844    2.246734   -0.825990   -0.827428   -0.399262   -0.064770
H    -8.713867    2.014836    0.929061   -0.828392   -0.406017   -0.021863
O    -6.446204    3.361473    0.189749    0.023979    0.344689    0.045914
O    -5.892435    1.209722   -0.107978    0.343712   -0.325663   -0.048857
H    -5.009163    1.617144   -0.064925    0.641435   -0.981376   -0.138058
