8
* (null), Energy   -1000.0000000
C    -8.211736    1.728101   -0.008013    0.155981   -0.347474   -0.048985
C    -6.782866    2.213722    0.039075   -0.046582    0.303599    0.041611
H    -8.277104    0.642209   -0.150979    1.177664   -0.403010   -0.070828
H    -8.734844    2.246734   -0.825990   -0.207748   -0.854879   -0.136753
H    -8.713867    2.014836    0.929061   -0.211265   -0.864326   -0.088742
O    -6.446204    3.361473    0.189749    0.312239    0.210957    0.024379
O    -5.892435    1.209722   -0.107978   -0.428791   -0.013825    0.003821
H    -5.009163    1.617144   -0.064925   -0.212311   -0.483872   -0.063392
8
* Frequency(7)  430.8195
C    -8.194010    1.688612   -0.013580    0.155981   -0.347474   -0.048985
C    -6.788159    2.248225    0.043804   -0.046582    0.303599    0.041611
H    -8.143269    0.596409   -0.159028    1.177664   -0.403010   -0.070828
H    -8.758453    2.149581   -0.841531   -0.207748   -0.854879   -0.136753
H    -8.737876    1.916610    0.918976   -0.211265   -0.864326   -0.088742
O    -6.410720    3.385447    0.192520    0.312239    0.210957    0.024379
O    -5.941165    1.208151   -0.107544   -0.428791   -0.013825    0.003821
H    -5.033292    1.562155   -0.072129   -0.212311   -0.483872   -0.063392
8
* Frequency(7)  430.8195
C    -8.178204    1.653403   -0.018544    0.155981   -0.347474   -0.048985
C    -6.792879    2.278988    0.048020   -0.046582    0.303599    0.041611
H    -8.023937    0.555572   -0.166205    1.177664   -0.403010   -0.070828
H    -8.779504    2.062957   -0.855388   -0.207748   -0.854879   -0.136753
H    -8.759284    1.829028    0.909984   -0.211265   -0.864326   -0.088742
O    -6.379081    3.406823    0.194990    0.312239    0.210957    0.024379
O    -5.984615    1.206750   -0.107157   -0.428791   -0.013825    0.003821
H    -5.054805    1.513124   -0.078553   -0.212311   -0.483872   -0.063392
8
* Frequency(7)  430.8195
C    -8.166033    1.626288   -0.022366    0.155981   -0.347474   -0.048985
C    -6.796514    2.302679    0.051267   -0.046582    0.303599    0.041611
H    -7.932039    0.524123   -0.171732    1.177664   -0.403010   -0.070828
H    -8.795715    1.996247   -0.866060   -0.207748   -0.854879   -0.136753
H    -8.775770    1.761581    0.903059   -0.211265   -0.864326   -0.088742
O    -6.354715    3.423285    0.196892    0.312239    0.210957    0.024379
O    -6.018075    1.205671   -0.106859   -0.428791   -0.013825    0.003821
H    -5.071372    1.475366   -0.083500   -0.212311   -0.483872   -0.063392
8
* Frequency(7)  430.8195
C    -8.158813    1.610206   -0.024633    0.155981   -0.347474   -0.048985
C    -6.798670    2.316730    0.053193   -0.046582    0.303599    0.041611
H    -7.877535    0.505471   -0.175010    1.177664   -0.403010   -0.070828
H    -8.805330    1.956682   -0.872389   -0.207748   -0.854879   -0.136753
H    -8.785547    1.721579    0.898952   -0.211265   -0.864326   -0.088742
O    -6.340264    3.433048    0.198021    0.312239    0.210957    0.024379
O    -6.037920    1.205031   -0.106682   -0.428791   -0.013825    0.003821
H    -5.081199    1.452971   -0.086433   -0.212311   -0.483872   -0.063392
8
* Frequency(7)  430.8195
C    -8.157329    1.606900   -0.025099    0.155981   -0.347474   -0.048985
C    -6.799114    2.319619    0.053589   -0.046582    0.303599    0.041611
H    -7.866330    0.501637   -0.175684    1.177664   -0.403010   -0.070828
H    -8.807307    1.948548   -0.873690   -0.207748   -0.854879   -0.136753
H    -8.787557    1.713355    0.898108   -0.211265   -0.864326   -0.088742
O    -6.337294    3.435056    0.198252    0.312239    0.210957    0.024379
O    -6.042000    1.204900   -0.106646   -0.428791   -0.013825    0.003821
H    -5.083219    1.448367   -0.087037   -0.212311   -0.483872   -0.063392
8
* Frequency(7)  430.8195
C    -8.161741    1.616728   -0.023714    0.155981   -0.347474   -0.048985
C    -6.797796    2.311032    0.052412   -0.046582    0.303599    0.041611
H    -7.899639    0.513036   -0.173681    1.177664   -0.403010   -0.070828
H    -8.801431    1.972727   -0.869822   -0.207748   -0.854879   -0.136753
H    -8.781582    1.737802    0.900618   -0.211265   -0.864326   -0.088742
O    -6.346125    3.429089    0.197563    0.312239    0.210957    0.024379
O    -6.029872    1.205291   -0.106754   -0.428791   -0.013825    0.003821
H    -5.077214    1.462053   -0.085244   -0.212311   -0.483872   -0.063392
8
* Frequency(7)  430.8195
C    -8.171571    1.638625   -0.020627    0.155981   -0.347474   -0.048985
C    -6.794861    2.291900    0.049790   -0.046582    0.303599    0.041611
H    -7.973852    0.538432   -0.169217    1.177664   -0.403010   -0.070828
H    -8.788339    2.026600   -0.861204   -0.207748   -0.854879   -0.136753
H    -8.768269    1.792269    0.906210   -0.211265   -0.864326   -0.088742
O    -6.365801    3.415795    0.196027    0.312239    0.210957    0.024379
O    -6.002851    1.206162   -0.106995   -0.428791   -0.013825    0.003821
H    -5.063834    1.492545   -0.081249   -0.212311   -0.483872   -0.063392
8
* Frequency(7)  430.8195
C    -8.185753    1.670218   -0.016173    0.155981   -0.347474   -0.048985
C    -6.790625    2.264296    0.046007   -0.046582    0.303599    0.041611
H    -8.080927    0.575075   -0.162777    1.177664   -0.403010   -0.070828
H    -8.769451    2.104327   -0.848771   -0.207748   -0.854879   -0.136753
H    -8.749060    1.870855    0.914279   -0.211265   -0.864326   -0.088742
O    -6.394191    3.396614    0.193810    0.312239    0.210957    0.024379
O    -5.963864    1.207419   -0.107342   -0.428791   -0.013825    0.003821
H    -5.044531    1.536540   -0.075485   -0.212311   -0.483872   -0.063392
8
* Frequency(7)  430.8195
C    -8.202751    1.708083   -0.010835    0.155981   -0.347474   -0.048985
C    -6.785549    2.231212    0.041472   -0.046582    0.303599    0.041611
H    -8.209261    0.618992   -0.155059    1.177664   -0.403010   -0.070828
H    -8.746812    2.197486   -0.833868   -0.207748   -0.854879   -0.136753
H    -8.726038    1.965044    0.923949   -0.211265   -0.864326   -0.088742
O    -6.428217    3.373625    0.191153    0.312239    0.210957    0.024379
O    -5.917137    1.208925   -0.107758   -0.428791   -0.013825    0.003821
H    -5.021394    1.589269   -0.068577   -0.212311   -0.483872   -0.063392
8
* Frequency(7)  430.8195
C    -8.220722    1.748118   -0.005191    0.155981   -0.347474   -0.048985
C    -6.780182    2.196232    0.036678   -0.046582    0.303599    0.041611
H    -8.344947    0.665426   -0.146899    1.177664   -0.403010   -0.070828
H    -8.722876    2.295982   -0.818112   -0.207748   -0.854879   -0.136753
H    -8.701697    2.064628    0.934174   -0.211265   -0.864326   -0.088742
O    -6.464192    3.349320    0.188345    0.312239    0.210957    0.024379
O    -5.867734    1.210518   -0.108198   -0.428791   -0.013825    0.003821
H    -4.996933    1.645019   -0.061273   -0.212311   -0.483872   -0.063392
8
* Frequency(7)  430.8195
C    -8.237720    1.785984    0.000147    0.155981   -0.347474   -0.048985
C    -6.775106    2.163148    0.032143   -0.046582    0.303599    0.041611
H    -8.473282    0.709343   -0.139180    1.177664   -0.403010   -0.070828
H    -8.700237    2.389141   -0.803210   -0.207748   -0.854879   -0.136753
H    -8.678674    2.158817    0.943844   -0.211265   -0.864326   -0.088742
O    -6.498217    3.326331    0.185688    0.312239    0.210957    0.024379
O    -5.821007    1.212025   -0.108615   -0.428791   -0.013825    0.003821
H    -4.973796    1.697748   -0.054365   -0.212311   -0.483872   -0.063392
8
* Frequency(7)  430.8195
C    -8.251902    1.817577    0.004601    0.155981   -0.347474   -0.048985
C    -6.770871    2.135544    0.028360   -0.046582    0.303599    0.041611
H    -8.580357    0.745985   -0.132740    1.177664   -0.403010   -0.070828
H    -8.681348    2.466868   -0.790776   -0.207748   -0.854879   -0.136753
H    -8.659466    2.237403    0.951913   -0.211265   -0.864326   -0.088742
O    -6.526607    3.307150    0.183471    0.312239    0.210957    0.024379
O    -5.782020    1.213282   -0.108962   -0.428791   -0.013825    0.003821
H    -4.954493    1.741743   -0.048601   -0.212311   -0.483872   -0.063392
8
* Frequency(7)  430.8195
C    -8.261732    1.839474    0.007687    0.155981   -0.347474   -0.048985
C    -6.767935    2.116412    0.025738   -0.046582    0.303599    0.041611
H    -8.654570    0.771382   -0.128277    1.177664   -0.403010   -0.070828
H    -8.668256    2.520740   -0.782158   -0.207748   -0.854879   -0.136753
H    -8.646152    2.291870    0.957505   -0.211265   -0.864326   -0.088742
O    -6.546283    3.293856    0.181935    0.312239    0.210957    0.024379
O    -5.754999    1.214153   -0.109203   -0.428791   -0.013825    0.003821
H    -4.941113    1.772235   -0.044607   -0.212311   -0.483872   -0.063392
8
* Frequency(7)  430.8195
C    -8.266143    1.849302    0.009073    0.155981   -0.347474   -0.048985
C    -6.766618    2.107825    0.024561   -0.046582    0.303599    0.041611
H    -8.687879    0.782781   -0.126274    1.177664   -0.403010   -0.070828
H    -8.662380    2.544919   -0.778290   -0.207748   -0.854879   -0.136753
H    -8.640177    2.316317    0.960015   -0.211265   -0.864326   -0.088742
O    -6.555114    3.287890    0.181246    0.312239    0.210957    0.024379
O    -5.742871    1.214544   -0.109311   -0.428791   -0.013825    0.003821
H    -4.935108    1.785921   -0.042814   -0.212311   -0.483872   -0.063392
8
* Frequency(7)  430.8195
C    -8.264659    1.845995    0.008607    0.155981   -0.347474   -0.048985
C    -6.767061    2.110714    0.024957   -0.046582    0.303599    0.041611
H    -8.676674    0.778946   -0.126948    1.177664   -0.403010   -0.070828
H    -8.664357    2.536786   -0.779591   -0.207748   -0.854879   -0.136753
H    -8.642187    2.308093    0.959171   -0.211265   -0.864326   -0.088742
O    -6.552144    3.289897    0.181478    0.312239    0.210957    0.024379
O    -5.746951    1.214413   -0.109275   -0.428791   -0.013825    0.003821
H    -4.937128    1.781317   -0.043417   -0.212311   -0.483872   -0.063392
8
* Frequency(7)  430.8195
C    -8.257440    1.829914    0.006340    0.155981   -0.347474   -0.048985
C    -6.769217    2.124765    0.026883   -0.046582    0.303599    0.041611
H    -8.622170    0.760294   -0.130226    1.177664   -0.403010   -0.070828
H    -8.673972    2.497220   -0.785920   -0.207748   -0.854879   -0.136753
H    -8.651965    2.268090    0.955064   -0.211265   -0.864326   -0.088742
O    -6.537693    3.299660    0.182606    0.312239    0.210957    0.024379
O    -5.766796    1.213773   -0.109098   -0.428791   -0.013825    0.003821
H    -4.946954    1.758923   -0.046351   -0.212311   -0.483872   -0.063392
8
* Frequency(7)  430.8195
C    -8.245268    1.802799    0.002517    0.155981   -0.347474   -0.048985
C    -6.772852    2.148456    0.030130   -0.046582    0.303599    0.041611
H    -8.530272    0.728846   -0.135753    1.177664   -0.403010   -0.070828
H    -8.690183    2.430511   -0.796592   -0.207748   -0.854879   -0.136753
H    -8.668450    2.200644    0.948139   -0.211265   -0.864326   -0.088742
O    -6.513327    3.316122    0.184508    0.312239    0.210957    0.024379
O    -5.800256    1.212694   -0.108800   -0.428791   -0.013825    0.003821
H    -4.963522    1.721164   -0.051297   -0.212311   -0.483872   -0.063392
8
* Frequency(7)  430.8195
C    -8.229463    1.767589   -0.002446    0.155981   -0.347474   -0.048985
C    -6.777572    2.179220    0.034346   -0.046582    0.303599    0.041611
H    -8.410940    0.688009   -0.142930    1.177664   -0.403010   -0.070828
H    -8.711234    2.343886   -0.810449   -0.207748   -0.854879   -0.136753
H    -8.689858    2.113062    0.939147   -0.211265   -0.864326   -0.088742
O    -6.481688    3.337498    0.186978    0.312239    0.210957    0.024379
O    -5.843706    1.211293   -0.108413   -0.428791   -0.013825    0.003821
H    -4.985035    1.672134   -0.057721   -0.212311   -0.483872   -0.063392
8
* Frequency(7)  430.8195
C    -8.211736    1.728101   -0.008013    0.155981   -0.347474   -0.048985
C    -6.782866    2.213722    0.039075   -0.046582    0.303599    0.041611
H    -8.277104    0.642209   -0.150979    1.177664   -0.403010   -0.070828
H    -8.734844    2.246734   -0.825990   -0.207748   -0.854879   -0.136753
H    -8.713867    2.014836    0.929061   -0.211265   -0.864326   -0.088742
O    -6.446204    3.361473    0.189749    0.312239    0.210957    0.024379
O    -5.892435    1.209722   -0.107978   -0.428791   -0.013825    0.003821
H    -5.009163    1.617144   -0.064925   -0.212311   -0.483872   -0.063392
