8
* (null), Energy   -1000.0000000
C    -8.211736    1.728101   -0.008013    0.000205   -0.001822    0.013234
C    -6.782866    2.213722    0.039075    0.000432   -0.005090    0.038418
H    -8.277104    0.642209   -0.150979    0.013216   -0.139583    1.053068
H    -8.734844    2.246734   -0.825990    0.350274   -0.846172   -0.755957
H    -8.713867    2.014836    0.929061   -0.365803    1.012250   -0.502016
O    -6.446204    3.361473    0.189749    0.001219   -0.011490    0.085349
O    -5.892435    1.209722   -0.107978   -0.001399    0.013519   -0.100149
H    -5.009163    1.617144   -0.064925   -0.002416    0.023669   -0.175670
8
* Frequency(6)  -83.3563
C    -8.211713    1.727894   -0.006509    0.000205   -0.001822    0.013234
C    -6.782816    2.213144    0.043441    0.000432   -0.005090    0.038418
H    -8.275603    0.626346   -0.031303    0.013216   -0.139583    1.053068
H    -8.695037    2.150571   -0.911901    0.350274   -0.846172   -0.755957
H    -8.755439    2.129873    0.872010   -0.365803    1.012250   -0.502016
O    -6.446066    3.360167    0.199449    0.001219   -0.011490    0.085349
O    -5.892594    1.211258   -0.119360   -0.001399    0.013519   -0.100149
H    -5.009438    1.619834   -0.084889   -0.002416    0.023669   -0.175670
8
* Frequency(6)  -83.3563
C    -8.211692    1.727709   -0.005168    0.000205   -0.001822    0.013234
C    -6.782773    2.212628    0.047334    0.000432   -0.005090    0.038418
H    -8.274263    0.612202    0.075404    0.013216   -0.139583    1.053068
H    -8.659544    2.064828   -0.988501    0.350274   -0.846172   -0.755957
H    -8.792505    2.232444    0.821141   -0.365803    1.012250   -0.502016
O    -6.445942    3.359003    0.208097    0.001219   -0.011490    0.085349
O    -5.892736    1.212628   -0.129508   -0.001399    0.013519   -0.100149
H    -5.009683    1.622232   -0.102690   -0.002416    0.023669   -0.175670
8
* Frequency(6)  -83.3563
C    -8.211676    1.727567   -0.004135    0.000205   -0.001822    0.013234
C    -6.782739    2.212231    0.050332    0.000432   -0.005090    0.038418
H    -8.273232    0.601310    0.157579    0.013216   -0.139583    1.053068
H    -8.632210    1.998798   -1.047492    0.350274   -0.846172   -0.755957
H    -8.821051    2.311433    0.781967   -0.365803    1.012250   -0.502016
O    -6.445847    3.358106    0.214757    0.001219   -0.011490    0.085349
O    -5.892845    1.213683   -0.137323   -0.001399    0.013519   -0.100149
H    -5.009871    1.624079   -0.116398   -0.002416    0.023669   -0.175670
8
* Frequency(6)  -83.3563
C    -8.211667    1.727483   -0.003523    0.000205   -0.001822    0.013234
C    -6.782719    2.211995    0.052110    0.000432   -0.005090    0.038418
H    -8.272620    0.594850    0.206317    0.013216   -0.139583    1.053068
H    -8.615999    1.959636   -1.082479    0.350274   -0.846172   -0.755957
H    -8.837981    2.358282    0.758732   -0.365803    1.012250   -0.502016
O    -6.445791    3.357574    0.218707    0.001219   -0.011490    0.085349
O    -5.892910    1.214309   -0.141958   -0.001399    0.013519   -0.100149
H    -5.009983    1.625175   -0.124528   -0.002416    0.023669   -0.175670
8
* Frequency(6)  -83.3563
C    -8.211665    1.727465   -0.003397    0.000205   -0.001822    0.013234
C    -6.782715    2.211947    0.052475    0.000432   -0.005090    0.038418
H    -8.272495    0.593522    0.216336    0.013216   -0.139583    1.053068
H    -8.612667    1.951585   -1.089671    0.350274   -0.846172   -0.755957
H    -8.841461    2.367913    0.753956   -0.365803    1.012250   -0.502016
O    -6.445779    3.357465    0.219519    0.001219   -0.011490    0.085349
O    -5.892923    1.214437   -0.142911   -0.001399    0.013519   -0.100149
H    -5.010006    1.625400   -0.126200   -0.002416    0.023669   -0.175670
8
* Frequency(6)  -83.3563
C    -8.211671    1.727517   -0.003771    0.000205   -0.001822    0.013234
C    -6.782727    2.212091    0.051389    0.000432   -0.005090    0.038418
H    -8.272868    0.597469    0.186551    0.013216   -0.139583    1.053068
H    -8.622574    1.975518   -1.068290    0.350274   -0.846172   -0.755957
H    -8.831115    2.339283    0.768155   -0.365803    1.012250   -0.502016
O    -6.445813    3.357790    0.217105    0.001219   -0.011490    0.085349
O    -5.892884    1.214055   -0.140078   -0.001399    0.013519   -0.100149
H    -5.009938    1.624731   -0.121231   -0.002416    0.023669   -0.175670
8
* Frequency(6)  -83.3563
C    -8.211684    1.727632   -0.004605    0.000205   -0.001822    0.013234
C    -6.782754    2.212411    0.048968    0.000432   -0.005090    0.038418
H    -8.273701    0.606266    0.120190    0.013216   -0.139583    1.053068
H    -8.644647    2.028842   -1.020651    0.350274   -0.846172   -0.755957
H    -8.808063    2.275494    0.799791   -0.365803    1.012250   -0.502016
O    -6.445890    3.358514    0.211727    0.001219   -0.011490    0.085349
O    -5.892796    1.213203   -0.133767   -0.001399    0.013519   -0.100149
H    -5.009786    1.623239   -0.110161   -0.002416    0.023669   -0.175670
8
* Frequency(6)  -83.3563
C    -8.211702    1.727797   -0.005809    0.000205   -0.001822    0.013234
C    -6.782794    2.212874    0.045475    0.000432   -0.005090    0.038418
H    -8.274903    0.618957    0.024443    0.013216   -0.139583    1.053068
H    -8.676494    2.105777   -0.951919    0.350274   -0.846172   -0.755957
H    -8.774803    2.183458    0.845435   -0.365803    1.012250   -0.502016
O    -6.446001    3.359559    0.203967    0.001219   -0.011490    0.085349
O    -5.892669    1.211974   -0.124661   -0.001399    0.013519   -0.100149
H    -5.009566    1.621087   -0.094188   -0.002416    0.023669   -0.175670
8
* Frequency(6)  -83.3563
C    -8.211725    1.727996   -0.007251    0.000205   -0.001822    0.013234
C    -6.782841    2.213429    0.041288    0.000432   -0.005090    0.038418
H    -8.276343    0.634168   -0.090314    0.013216   -0.139583    1.053068
H    -8.714665    2.197987   -0.869539    0.350274   -0.846172   -0.755957
H    -8.734940    2.073150    0.900141   -0.365803    1.012250   -0.502016
O    -6.446134    3.360811    0.194666    0.001219   -0.011490    0.085349
O    -5.892516    1.210501   -0.113748   -0.001399    0.013519   -0.100149
H    -5.009303    1.618508   -0.075045   -0.002416    0.023669   -0.175670
8
* Frequency(6)  -83.3563
C    -8.211748    1.728206   -0.008776    0.000205   -0.001822    0.013234
C    -6.782890    2.214015    0.036862    0.000432   -0.005090    0.038418
H    -8.277866    0.650250   -0.211644    0.013216   -0.139583    1.053068
H    -8.755022    2.295480   -0.782441    0.350274   -0.846172   -0.755957
H    -8.692794    1.956522    0.957982   -0.365803    1.012250   -0.502016
O    -6.446274    3.362135    0.184832    0.001219   -0.011490    0.085349
O    -5.892355    1.208943   -0.102209   -0.001399    0.013519   -0.100149
H    -5.009024    1.615781   -0.054805   -0.002416    0.023669   -0.175670
8
* Frequency(6)  -83.3563
C    -8.211771    1.728404   -0.010218    0.000205   -0.001822    0.013234
C    -6.782938    2.214570    0.032675    0.000432   -0.005090    0.038418
H    -8.279306    0.665461   -0.326401    0.013216   -0.139583    1.053068
H    -8.793193    2.387690   -0.700062    0.350274   -0.846172   -0.755957
H    -8.652931    1.846214    1.012688   -0.365803    1.012250   -0.502016
O    -6.446407    3.363387    0.175531    0.001219   -0.011490    0.085349
O    -5.892202    1.207470   -0.091295   -0.001399    0.013519   -0.100149
H    -5.008761    1.613201   -0.035662   -0.002416    0.023669   -0.175670
8
* Frequency(6)  -83.3563
C    -8.211789    1.728570   -0.011421    0.000205   -0.001822    0.013234
C    -6.782977    2.215033    0.029182    0.000432   -0.005090    0.038418
H    -8.280508    0.678152   -0.422147    0.013216   -0.139583    1.053068
H    -8.825040    2.464626   -0.631329    0.350274   -0.846172   -0.755957
H    -8.619671    1.754178    1.058332   -0.365803    1.012250   -0.502016
O    -6.446518    3.364431    0.167771    0.001219   -0.011490    0.085349
O    -5.892075    1.206241   -0.082190   -0.001399    0.013519   -0.100149
H    -5.008541    1.611049   -0.019690   -0.002416    0.023669   -0.175670
8
* Frequency(6)  -83.3563
C    -8.211802    1.728685   -0.012255    0.000205   -0.001822    0.013234
C    -6.783004    2.215354    0.026761    0.000432   -0.005090    0.038418
H    -8.281340    0.686948   -0.488509    0.013216   -0.139583    1.053068
H    -8.847113    2.517949   -0.583690    0.350274   -0.846172   -0.755957
H    -8.596620    1.690389    1.089968   -0.365803    1.012250   -0.502016
O    -6.446595    3.365155    0.162393    0.001219   -0.011490    0.085349
O    -5.891987    1.205389   -0.075879   -0.001399    0.013519   -0.100149
H    -5.008389    1.609558   -0.008619   -0.002416    0.023669   -0.175670
8
* Frequency(6)  -83.3563
C    -8.211808    1.728736   -0.012629    0.000205   -0.001822    0.013234
C    -6.783016    2.215497    0.025675    0.000432   -0.005090    0.038418
H    -8.281714    0.690896   -0.518294    0.013216   -0.139583    1.053068
H    -8.857021    2.541882   -0.562309    0.350274   -0.846172   -0.755957
H    -8.586273    1.661758    1.104167   -0.365803    1.012250   -0.502016
O    -6.446629    3.365480    0.159979    0.001219   -0.011490    0.085349
O    -5.891948    1.205007   -0.073046   -0.001399    0.013519   -0.100149
H    -5.008321    1.608888   -0.003651   -0.002416    0.023669   -0.175670
8
* Frequency(6)  -83.3563
C    -8.211806    1.728719   -0.012503    0.000205   -0.001822    0.013234
C    -6.783012    2.215449    0.026040    0.000432   -0.005090    0.038418
H    -8.281588    0.689568   -0.508274    0.013216   -0.139583    1.053068
H    -8.853688    2.533832   -0.569501    0.350274   -0.846172   -0.755957
H    -8.589754    1.671389    1.099390   -0.365803    1.012250   -0.502016
O    -6.446617    3.365371    0.160791    0.001219   -0.011490    0.085349
O    -5.891961    1.205135   -0.073999   -0.001399    0.013519   -0.100149
H    -5.008344    1.609113   -0.005322   -0.002416    0.023669   -0.175670
8
* Frequency(6)  -83.3563
C    -8.211796    1.728635   -0.011891    0.000205   -0.001822    0.013234
C    -6.782992    2.215213    0.027818    0.000432   -0.005090    0.038418
H    -8.280977    0.683108   -0.459536    0.013216   -0.139583    1.053068
H    -8.837477    2.494669   -0.604488    0.350274   -0.846172   -0.755957
H    -8.606684    1.718238    1.076156   -0.365803    1.012250   -0.502016
O    -6.446561    3.364839    0.164741    0.001219   -0.011490    0.085349
O    -5.892026    1.205761   -0.078634   -0.001399    0.013519   -0.100149
H    -5.008456    1.610209   -0.013452   -0.002416    0.023669   -0.175670
8
* Frequency(6)  -83.3563
C    -8.211780    1.728493   -0.010858    0.000205   -0.001822    0.013234
C    -6.782959    2.214816    0.030816    0.000432   -0.005090    0.038418
H    -8.279945    0.672216   -0.377361    0.013216   -0.139583    1.053068
H    -8.810143    2.428639   -0.663479    0.350274   -0.846172   -0.755957
H    -8.635229    1.797228    1.036982   -0.365803    1.012250   -0.502016
O    -6.446466    3.363943    0.171401    0.001219   -0.011490    0.085349
O    -5.892135    1.206816   -0.086449   -0.001399    0.013519   -0.100149
H    -5.008644    1.612056   -0.027161   -0.002416    0.023669   -0.175670
8
* Frequency(6)  -83.3563
C    -8.211760    1.728308   -0.009517    0.000205   -0.001822    0.013234
C    -6.782915    2.214301    0.034709    0.000432   -0.005090    0.038418
H    -8.278606    0.658072   -0.270655    0.013216   -0.139583    1.053068
H    -8.774650    2.342897   -0.740079    0.350274   -0.846172   -0.755957
H    -8.672295    1.899799    0.986113   -0.365803    1.012250   -0.502016
O    -6.446343    3.362778    0.180050    0.001219   -0.011490    0.085349
O    -5.892277    1.208186   -0.096597   -0.001399    0.013519   -0.100149
H    -5.008889    1.614454   -0.044961   -0.002416    0.023669   -0.175670
8
* Frequency(6)  -83.3563
C    -8.211736    1.728101   -0.008013    0.000205   -0.001822    0.013234
C    -6.782866    2.213722    0.039075    0.000432   -0.005090    0.038418
H    -8.277104    0.642209   -0.150979    0.013216   -0.139583    1.053068
H    -8.734844    2.246734   -0.825990    0.350274   -0.846172   -0.755957
H    -8.713867    2.014836    0.929061   -0.365803    1.012250   -0.502016
O    -6.446204    3.361473    0.189749    0.001219   -0.011490    0.085349
O    -5.892435    1.209722   -0.107978   -0.001399    0.013519   -0.100149
H    -5.009163    1.617144   -0.064925   -0.002416    0.023669   -0.175670
