8
* (null), Energy   -1000.0000000
C    -8.211736    1.728101   -0.008013   -0.101294   -0.008274    0.003623
C    -6.782866    2.213722    0.039075    0.004480    0.001307    0.000155
H    -8.277104    0.642209   -0.150979    0.042711    0.977220    0.129717
H    -8.734844    2.246734   -0.825990    0.554677   -0.567894    0.900863
H    -8.713867    2.014836    0.929061    0.556481   -0.327551   -1.075789
O    -6.446204    3.361473    0.189749   -0.000133    0.000244    0.000027
O    -5.892435    1.209722   -0.107978   -0.000067   -0.000375   -0.000042
H    -5.009163    1.617144   -0.064925    0.002906    0.003318    0.000430
8
* Frequency(20) 3052.5452
C    -8.223248    1.727161   -0.007601   -0.101294   -0.008274    0.003623
C    -6.782356    2.213871    0.039093    0.004480    0.001307    0.000155
H    -8.272251    0.753265   -0.136237    0.042711    0.977220    0.129717
H    -8.671807    2.182196   -0.723612    0.554677   -0.567894    0.900863
H    -8.650626    1.977611    0.806804    0.556481   -0.327551   -1.075789
O    -6.446219    3.361500    0.189752   -0.000133    0.000244    0.000027
O    -5.892443    1.209679   -0.107983   -0.000067   -0.000375   -0.000042
H    -5.008833    1.617521   -0.064876    0.002906    0.003318    0.000430
8
* Frequency(20) 3052.5452
C    -8.233512    1.726322   -0.007234   -0.101294   -0.008274    0.003623
C    -6.781903    2.214003    0.039108    0.004480    0.001307    0.000155
H    -8.267923    0.852286   -0.123093    0.042711    0.977220    0.129717
H    -8.615602    2.124651   -0.632327    0.554677   -0.567894    0.900863
H    -8.594238    1.944421    0.697794    0.556481   -0.327551   -1.075789
O    -6.446233    3.361525    0.189755   -0.000133    0.000244    0.000027
O    -5.892450    1.209641   -0.107987   -0.000067   -0.000375   -0.000042
H    -5.008539    1.617857   -0.064833    0.002906    0.003318    0.000430
8
* Frequency(20) 3052.5452
C    -8.241416    1.725677   -0.006952   -0.101294   -0.008274    0.003623
C    -6.781553    2.214105    0.039120    0.004480    0.001307    0.000155
H    -8.264590    0.928542   -0.112971    0.042711    0.977220    0.129717
H    -8.572319    2.080336   -0.562030    0.554677   -0.567894    0.900863
H    -8.550814    1.918861    0.613847    0.556481   -0.327551   -1.075789
O    -6.446243    3.361544    0.189757   -0.000133    0.000244    0.000027
O    -5.892455    1.209612   -0.107991   -0.000067   -0.000375   -0.000042
H    -5.008312    1.618116   -0.064799    0.002906    0.003318    0.000430
8
* Frequency(20) 3052.5452
C    -8.246104    1.725294   -0.006784   -0.101294   -0.008274    0.003623
C    -6.781346    2.214166    0.039128    0.004480    0.001307    0.000155
H    -8.262613    0.973770   -0.106967    0.042711    0.977220    0.129717
H    -8.546647    2.054053   -0.520336    0.554677   -0.567894    0.900863
H    -8.525059    1.903701    0.564057    0.556481   -0.327551   -1.075789
O    -6.446249    3.361555    0.189758   -0.000133    0.000244    0.000027
O    -5.892458    1.209595   -0.107993   -0.000067   -0.000375   -0.000042
H    -5.008177    1.618270   -0.064779    0.002906    0.003318    0.000430
8
* Frequency(20) 3052.5452
C    -8.247068    1.725215   -0.006749   -0.101294   -0.008274    0.003623
C    -6.781303    2.214178    0.039129    0.004480    0.001307    0.000155
H    -8.262207    0.983068   -0.105733    0.042711    0.977220    0.129717
H    -8.541370    2.048650   -0.511765    0.554677   -0.567894    0.900863
H    -8.519764    1.900585    0.553822    0.556481   -0.327551   -1.075789
O    -6.446250    3.361558    0.189758   -0.000133    0.000244    0.000027
O    -5.892459    1.209591   -0.107993   -0.000067   -0.000375   -0.000042
H    -5.008150    1.618301   -0.064775    0.002906    0.003318    0.000430
8
* Frequency(20) 3052.5452
C    -8.244203    1.725449   -0.006852   -0.101294   -0.008274    0.003623
C    -6.781430    2.214141    0.039125    0.004480    0.001307    0.000155
H    -8.263415    0.955428   -0.109402    0.042711    0.977220    0.129717
H    -8.557058    2.064712   -0.537245    0.554677   -0.567894    0.900863
H    -8.535503    1.909849    0.584249    0.556481   -0.327551   -1.075789
O    -6.446247    3.361551    0.189758   -0.000133    0.000244    0.000027
O    -5.892457    1.209602   -0.107992   -0.000067   -0.000375   -0.000042
H    -5.008232    1.618208   -0.064787    0.002906    0.003318    0.000430
8
* Frequency(20) 3052.5452
C    -8.237820    1.725970   -0.007080   -0.101294   -0.008274    0.003623
C    -6.781712    2.214059    0.039115    0.004480    0.001307    0.000155
H    -8.266106    0.893846   -0.117576    0.042711    0.977220    0.129717
H    -8.592012    2.100499   -0.594015    0.554677   -0.567894    0.900863
H    -8.570571    1.930490    0.652042    0.556481   -0.327551   -1.075789
O    -6.446238    3.361535    0.189756   -0.000133    0.000244    0.000027
O    -5.892453    1.209625   -0.107989   -0.000067   -0.000375   -0.000042
H    -5.008415    1.617998   -0.064814    0.002906    0.003318    0.000430
8
* Frequency(20) 3052.5452
C    -8.228610    1.726723   -0.007410   -0.101294   -0.008274    0.003623
C    -6.782119    2.213940    0.039101    0.004480    0.001307    0.000155
H    -8.269990    0.804996   -0.129370    0.042711    0.977220    0.129717
H    -8.642445    2.152133   -0.675923    0.554677   -0.567894    0.900863
H    -8.621168    1.960272    0.749855    0.556481   -0.327551   -1.075789
O    -6.446226    3.361513    0.189753   -0.000133    0.000244    0.000027
O    -5.892447    1.209659   -0.107985   -0.000067   -0.000375   -0.000042
H    -5.008679    1.617697   -0.064854    0.002906    0.003318    0.000430
8
* Frequency(20) 3052.5452
C    -8.217572    1.727624   -0.007804   -0.101294   -0.008274    0.003623
C    -6.782608    2.213797    0.039084    0.004480    0.001307    0.000155
H    -8.274644    0.698505   -0.143506    0.042711    0.977220    0.129717
H    -8.702890    2.214019   -0.774093    0.554677   -0.567894    0.900863
H    -8.681809    1.995966    0.867087    0.556481   -0.327551   -1.075789
O    -6.446212    3.361487    0.189751   -0.000133    0.000244    0.000027
O    -5.892439    1.209700   -0.107981   -0.000067   -0.000375   -0.000042
H    -5.008996    1.617335   -0.064900    0.002906    0.003318    0.000430
8
* Frequency(20) 3052.5452
C    -8.205901    1.728577   -0.008222   -0.101294   -0.008274    0.003623
C    -6.783124    2.213647    0.039066    0.004480    0.001307    0.000155
H    -8.279565    0.585913   -0.158452    0.042711    0.977220    0.129717
H    -8.766797    2.279449   -0.877887    0.554677   -0.567894    0.900863
H    -8.745925    2.033705    0.991036    0.556481   -0.327551   -1.075789
O    -6.446196    3.361459    0.189747   -0.000133    0.000244    0.000027
O    -5.892432    1.209743   -0.107976   -0.000067   -0.000375   -0.000042
H    -5.009331    1.616953   -0.064950    0.002906    0.003318    0.000430
8
* Frequency(20) 3052.5452
C    -8.194863    1.729479   -0.008617   -0.101294   -0.008274    0.003623
C    -6.783612    2.213504    0.039049    0.004480    0.001307    0.000155
H    -8.284219    0.479422   -0.172587    0.042711    0.977220    0.129717
H    -8.827242    2.341334   -0.976057    0.554677   -0.567894    0.900863
H    -8.806567    2.069400    1.108268    0.556481   -0.327551   -1.075789
O    -6.446182    3.361432    0.189745   -0.000133    0.000244    0.000027
O    -5.892424    1.209784   -0.107971   -0.000067   -0.000375   -0.000042
H    -5.009648    1.616591   -0.064997    0.002906    0.003318    0.000430
8
* Frequency(20) 3052.5452
C    -8.185653    1.730231   -0.008946   -0.101294   -0.008274    0.003623
C    -6.784019    2.213385    0.039035    0.004480    0.001307    0.000155
H    -8.288103    0.390571   -0.184381    0.042711    0.977220    0.129717
H    -8.877675    2.392968   -1.057965    0.554677   -0.567894    0.900863
H    -8.857163    2.099181    1.206081    0.556481   -0.327551   -1.075789
O    -6.446170    3.361410    0.189742   -0.000133    0.000244    0.000027
O    -5.892418    1.209818   -0.107968   -0.000067   -0.000375   -0.000042
H    -5.009912    1.616290   -0.065036    0.002906    0.003318    0.000430
8
* Frequency(20) 3052.5452
C    -8.179270    1.730753   -0.009174   -0.101294   -0.008274    0.003623
C    -6.784301    2.213303    0.039025    0.004480    0.001307    0.000155
H    -8.290794    0.328990   -0.192556    0.042711    0.977220    0.129717
H    -8.912629    2.428755   -1.114735    0.554677   -0.567894    0.900863
H    -8.892231    2.119823    1.273874    0.556481   -0.327551   -1.075789
O    -6.446162    3.361394    0.189740   -0.000133    0.000244    0.000027
O    -5.892414    1.209842   -0.107965   -0.000067   -0.000375   -0.000042
H    -5.010095    1.616081   -0.065063    0.002906    0.003318    0.000430
8
* Frequency(20) 3052.5452
C    -8.176405    1.730987   -0.009277   -0.101294   -0.008274    0.003623
C    -6.784428    2.213266    0.039021    0.004480    0.001307    0.000155
H    -8.292002    0.301350   -0.196225    0.042711    0.977220    0.129717
H    -8.928317    2.444818   -1.140215    0.554677   -0.567894    0.900863
H    -8.907970    2.129087    1.304301    0.556481   -0.327551   -1.075789
O    -6.446158    3.361388    0.189740   -0.000133    0.000244    0.000027
O    -5.892412    1.209853   -0.107964   -0.000067   -0.000375   -0.000042
H    -5.010177    1.615987   -0.065075    0.002906    0.003318    0.000430
8
* Frequency(20) 3052.5452
C    -8.177368    1.730908   -0.009242   -0.101294   -0.008274    0.003623
C    -6.784386    2.213279    0.039022    0.004480    0.001307    0.000155
H    -8.291596    0.310648   -0.194991    0.042711    0.977220    0.129717
H    -8.923040    2.439414   -1.131644    0.554677   -0.567894    0.900863
H    -8.902676    2.125971    1.294066    0.556481   -0.327551   -1.075789
O    -6.446159    3.361390    0.189740   -0.000133    0.000244    0.000027
O    -5.892413    1.209849   -0.107964   -0.000067   -0.000375   -0.000042
H    -5.010150    1.616018   -0.065071    0.002906    0.003318    0.000430
8
* Frequency(20) 3052.5452
C    -8.182057    1.730525   -0.009075   -0.101294   -0.008274    0.003623
C    -6.784178    2.213339    0.039029    0.004480    0.001307    0.000155
H    -8.289619    0.355875   -0.188987    0.042711    0.977220    0.129717
H    -8.897368    2.413131   -1.089950    0.554677   -0.567894    0.900863
H    -8.876921    2.110811    1.244276    0.556481   -0.327551   -1.075789
O    -6.446165    3.361401    0.189741   -0.000133    0.000244    0.000027
O    -5.892416    1.209832   -0.107966   -0.000067   -0.000375   -0.000042
H    -5.010015    1.616172   -0.065051    0.002906    0.003318    0.000430
8
* Frequency(20) 3052.5452
C    -8.189961    1.729879   -0.008792   -0.101294   -0.008274    0.003623
C    -6.783829    2.213441    0.039042    0.004480    0.001307    0.000155
H    -8.286286    0.432131   -0.178865    0.042711    0.977220    0.129717
H    -8.854085    2.368816   -1.019653    0.554677   -0.567894    0.900863
H    -8.833496    2.085251    1.160329    0.556481   -0.327551   -1.075789
O    -6.446176    3.361420    0.189743   -0.000133    0.000244    0.000027
O    -5.892421    1.209803   -0.107969   -0.000067   -0.000375   -0.000042
H    -5.009788    1.616431   -0.065018    0.002906    0.003318    0.000430
8
* Frequency(20) 3052.5452
C    -8.200225    1.729041   -0.008425   -0.101294   -0.008274    0.003623
C    -6.783375    2.213574    0.039057    0.004480    0.001307    0.000155
H    -8.281958    0.531153   -0.165721    0.042711    0.977220    0.129717
H    -8.797880    2.311272   -0.928369    0.554677   -0.567894    0.900863
H    -8.777108    2.052060    1.051319    0.556481   -0.327551   -1.075789
O    -6.446189    3.361445    0.189746   -0.000133    0.000244    0.000027
O    -5.892428    1.209765   -0.107974   -0.000067   -0.000375   -0.000042
H    -5.009494    1.616767   -0.064974    0.002906    0.003318    0.000430
8
* Frequency(20) 3052.5452
C    -8.211736    1.728101   -0.008013   -0.101294   -0.008274    0.003623
C    -6.782866    2.213722    0.039075    0.004480    0.001307    0.000155
H    -8.277104    0.642209   -0.150979    0.042711    0.977220    0.129717
H    -8.734844    2.246734   -0.825990    0.554677   -0.567894    0.900863
H    -8.713867    2.014836    0.929061    0.556481   -0.327551   -1.075789
O    -6.446204    3.361473    0.189749   -0.000133    0.000244    0.000027
O    -5.892435    1.209722   -0.107978   -0.000067   -0.000375   -0.000042
H    -5.009163    1.617144   -0.064925    0.002906    0.003318    0.000430
