8
* (null), Energy   -1000.0000000
C    -8.211736    1.728101   -0.008013    0.001622   -0.008415    0.062305
C    -6.782866    2.213722    0.039075    0.003636   -0.037749    0.279199
H    -8.277104    0.642209   -0.150979   -0.003436    0.023326   -0.176048
H    -8.734844    2.246734   -0.825990    0.431290    0.152884   -0.114676
H    -8.713867    2.014836    0.929061   -0.431341   -0.116631   -0.140552
O    -6.446204    3.361473    0.189749   -0.002022    0.018152   -0.133746
O    -5.892435    1.209722   -0.107978   -0.003207    0.028180   -0.210249
H    -5.009163    1.617144   -0.064925    0.023817   -0.244889    1.821919
8
* Frequency(10)  713.6787
C    -8.211552    1.727145   -0.000932    0.001622   -0.008415    0.062305
C    -6.782452    2.209432    0.070805    0.003636   -0.037749    0.279199
H    -8.277495    0.644860   -0.170986   -0.003436    0.023326   -0.176048
H    -8.685830    2.264108   -0.839022    0.431290    0.152884   -0.114676
H    -8.762887    2.001581    0.913088   -0.431341   -0.116631   -0.140552
O    -6.446434    3.363536    0.174549   -0.002022    0.018152   -0.133746
O    -5.892800    1.212924   -0.131872   -0.003207    0.028180   -0.210249
H    -5.006457    1.589314    0.142127    0.023817   -0.244889    1.821919
8
* Frequency(10)  713.6787
C    -8.211388    1.726292    0.005381    0.001622   -0.008415    0.062305
C    -6.782084    2.205607    0.099096    0.003636   -0.037749    0.279199
H    -8.277843    0.647223   -0.188825   -0.003436    0.023326   -0.176048
H    -8.642127    2.279600   -0.850642    0.431290    0.152884   -0.114676
H    -8.806594    1.989763    0.898846   -0.431341   -0.116631   -0.140552
O    -6.446639    3.365375    0.160997   -0.002022    0.018152   -0.133746
O    -5.893125    1.215780   -0.153177   -0.003207    0.028180   -0.210249
H    -5.004043    1.564499    0.326741    0.023817   -0.244889    1.821919
8
* Frequency(10)  713.6787
C    -8.211261    1.725635    0.010243    0.001622   -0.008415    0.062305
C    -6.781800    2.202661    0.120883    0.003636   -0.037749    0.279199
H    -8.278111    0.649043   -0.202562   -0.003436    0.023326   -0.176048
H    -8.608472    2.291530   -0.859591    0.431290    0.152884   -0.114676
H    -8.840254    1.980662    0.887879   -0.431341   -0.116631   -0.140552
O    -6.446796    3.366791    0.150560   -0.002022    0.018152   -0.133746
O    -5.893375    1.217979   -0.169583   -0.003207    0.028180   -0.210249
H    -5.002185    1.545390    0.468912    0.023817   -0.244889    1.821919
8
* Frequency(10)  713.6787
C    -8.211186    1.725246    0.013126    0.001622   -0.008415    0.062305
C    -6.781632    2.200914    0.133805    0.003636   -0.037749    0.279199
H    -8.278270    0.650123   -0.210710   -0.003436    0.023326   -0.176048
H    -8.588511    2.298606   -0.864898    0.431290    0.152884   -0.114676
H    -8.860217    1.975264    0.881373   -0.431341   -0.116631   -0.140552
O    -6.446890    3.367631    0.144370   -0.002022    0.018152   -0.133746
O    -5.893523    1.219283   -0.179314   -0.003207    0.028180   -0.210249
H    -5.001083    1.534056    0.553234    0.023817   -0.244889    1.821919
8
* Frequency(10)  713.6787
C    -8.211171    1.725166    0.013719    0.001622   -0.008415    0.062305
C    -6.781597    2.200555    0.136461    0.003636   -0.037749    0.279199
H    -8.278303    0.650345   -0.212385   -0.003436    0.023326   -0.176048
H    -8.584408    2.300060   -0.865990    0.431290    0.152884   -0.114676
H    -8.864321    1.974155    0.880036   -0.431341   -0.116631   -0.140552
O    -6.446909    3.367804    0.143098   -0.002022    0.018152   -0.133746
O    -5.893554    1.219551   -0.181314   -0.003207    0.028180   -0.210249
H    -5.000856    1.531726    0.570569    0.023817   -0.244889    1.821919
8
* Frequency(10)  713.6787
C    -8.211217    1.725404    0.011957    0.001622   -0.008415    0.062305
C    -6.781700    2.201623    0.128564    0.003636   -0.037749    0.279199
H    -8.278206    0.649685   -0.207406   -0.003436    0.023326   -0.176048
H    -8.596606    2.295736   -0.862746    0.431290    0.152884   -0.114676
H    -8.852121    1.977453    0.884012   -0.431341   -0.116631   -0.140552
O    -6.446852    3.367291    0.146881   -0.002022    0.018152   -0.133746
O    -5.893463    1.218754   -0.175368   -0.003207    0.028180   -0.210249
H    -5.001530    1.538652    0.519038    0.023817   -0.244889    1.821919
8
* Frequency(10)  713.6787
C    -8.211319    1.725934    0.008031    0.001622   -0.008415    0.062305
C    -6.781929    2.204002    0.110970    0.003636   -0.037749    0.279199
H    -8.277989    0.648215   -0.196312   -0.003436    0.023326   -0.176048
H    -8.623785    2.286102   -0.855520    0.431290    0.152884   -0.114676
H    -8.824939    1.984803    0.892869   -0.431341   -0.116631   -0.140552
O    -6.446725    3.366147    0.155309   -0.002022    0.018152   -0.133746
O    -5.893261    1.216978   -0.162118   -0.003207    0.028180   -0.210249
H    -5.003031    1.554084    0.404225    0.023817   -0.244889    1.821919
8
* Frequency(10)  713.6787
C    -8.211466    1.726699    0.002366    0.001622   -0.008415    0.062305
C    -6.782260    2.207434    0.085584    0.003636   -0.037749    0.279199
H    -8.277677    0.646094   -0.180305   -0.003436    0.023326   -0.176048
H    -8.662999    2.272201   -0.845093    0.431290    0.152884   -0.114676
H    -8.785721    1.995407    0.905648   -0.431341   -0.116631   -0.140552
O    -6.446541    3.364496    0.167469   -0.002022    0.018152   -0.133746
O    -5.892970    1.214416   -0.143002   -0.003207    0.028180   -0.210249
H    -5.005196    1.576350    0.238573    0.023817   -0.244889    1.821919
8
* Frequency(10)  713.6787
C    -8.211643    1.727616   -0.004424    0.001622   -0.008415    0.062305
C    -6.782656    2.211547    0.055159    0.003636   -0.037749    0.279199
H    -8.277302    0.643553   -0.161121   -0.003436    0.023326   -0.176048
H    -8.709998    2.255541   -0.832596    0.431290    0.152884   -0.114676
H    -8.738716    2.008117    0.920965   -0.431341   -0.116631   -0.140552
O    -6.446320    3.362518    0.182044   -0.002022    0.018152   -0.133746
O    -5.892620    1.211345   -0.120090   -0.003207    0.028180   -0.210249
H    -5.007791    1.603037    0.040032    0.023817   -0.244889    1.821919
8
* Frequency(10)  713.6787
C    -8.211830    1.728586   -0.011602    0.001622   -0.008415    0.062305
C    -6.783075    2.215897    0.022991    0.003636   -0.037749    0.279199
H    -8.276906    0.640865   -0.140837   -0.003436    0.023326   -0.176048
H    -8.759689    2.237926   -0.819384    0.431290    0.152884   -0.114676
H    -8.689018    2.021555    0.937158   -0.431341   -0.116631   -0.140552
O    -6.446088    3.360427    0.197454   -0.002022    0.018152   -0.133746
O    -5.892251    1.208099   -0.095866   -0.003207    0.028180   -0.210249
H    -5.010536    1.631252   -0.169882    0.023817   -0.244889    1.821919
8
* Frequency(10)  713.6787
C    -8.212007    1.729503   -0.018392    0.001622   -0.008415    0.062305
C    -6.783471    2.220010   -0.007434    0.003636   -0.037749    0.279199
H    -8.276532    0.638323   -0.121652   -0.003436    0.023326   -0.176048
H    -8.806688    2.221266   -0.806887    0.431290    0.152884   -0.114676
H    -8.642014    2.034264    0.952475   -0.431341   -0.116631   -0.140552
O    -6.445867    3.358449    0.212029   -0.002022    0.018152   -0.133746
O    -5.891901    1.205028   -0.072955   -0.003207    0.028180   -0.210249
H    -5.013131    1.657938   -0.368423    0.023817   -0.244889    1.821919
8
* Frequency(10)  713.6787
C    -8.212154    1.730268   -0.024057    0.001622   -0.008415    0.062305
C    -6.783802    2.223442   -0.032820    0.003636   -0.037749    0.279199
H    -8.276220    0.636202   -0.105646   -0.003436    0.023326   -0.176048
H    -8.845902    2.207366   -0.796461    0.431290    0.152884   -0.114676
H    -8.602795    2.044869    0.965254   -0.431341   -0.116631   -0.140552
O    -6.445683    3.356798    0.224189   -0.002022    0.018152   -0.133746
O    -5.891610    1.202466   -0.053838   -0.003207    0.028180   -0.210249
H    -5.015296    1.680204   -0.534075    0.023817   -0.244889    1.821919
8
* Frequency(10)  713.6787
C    -8.212256    1.730798   -0.027983    0.001622   -0.008415    0.062305
C    -6.784031    2.225821   -0.050414    0.003636   -0.037749    0.279199
H    -8.276003    0.634733   -0.094552   -0.003436    0.023326   -0.176048
H    -8.873081    2.197731   -0.789234    0.431290    0.152884   -0.114676
H    -8.575613    2.052218    0.974111   -0.431341   -0.116631   -0.140552
O    -6.445556    3.355654    0.232617   -0.002022    0.018152   -0.133746
O    -5.891408    1.200690   -0.040589   -0.003207    0.028180   -0.210249
H    -5.016797    1.695636   -0.648888    0.023817   -0.244889    1.821919
8
* Frequency(10)  713.6787
C    -8.212302    1.731036   -0.029746    0.001622   -0.008415    0.062305
C    -6.784134    2.226889   -0.058311    0.003636   -0.037749    0.279199
H    -8.275906    0.634073   -0.089572   -0.003436    0.023326   -0.176048
H    -8.885279    2.193407   -0.785991    0.431290    0.152884   -0.114676
H    -8.563413    2.055517    0.978087   -0.431341   -0.116631   -0.140552
O    -6.445499    3.355141    0.236400   -0.002022    0.018152   -0.133746
O    -5.891317    1.199893   -0.034642   -0.003207    0.028180   -0.210249
H    -5.017471    1.702562   -0.700419    0.023817   -0.244889    1.821919
8
* Frequency(10)  713.6787
C    -8.212287    1.730956   -0.029153    0.001622   -0.008415    0.062305
C    -6.784099    2.226530   -0.055655    0.003636   -0.037749    0.279199
H    -8.275939    0.634295   -0.091247   -0.003436    0.023326   -0.176048
H    -8.881176    2.194862   -0.787082    0.431290    0.152884   -0.114676
H    -8.567517    2.054407    0.976749   -0.431341   -0.116631   -0.140552
O    -6.445518    3.355314    0.235128   -0.002022    0.018152   -0.133746
O    -5.891347    1.200161   -0.036643   -0.003207    0.028180   -0.210249
H    -5.017244    1.700232   -0.683084    0.023817   -0.244889    1.821919
8
* Frequency(10)  713.6787
C    -8.212212    1.730566   -0.026269    0.001622   -0.008415    0.062305
C    -6.783931    2.224783   -0.042733    0.003636   -0.037749    0.279199
H    -8.276098    0.635374   -0.099395   -0.003436    0.023326   -0.176048
H    -8.861215    2.201938   -0.792389    0.431290    0.152884   -0.114676
H    -8.587481    2.049010    0.970244   -0.431341   -0.116631   -0.140552
O    -6.445612    3.356154    0.228938   -0.002022    0.018152   -0.133746
O    -5.891496    1.201465   -0.046374   -0.003207    0.028180   -0.210249
H    -5.016142    1.688899   -0.598762    0.023817   -0.244889    1.821919
8
* Frequency(10)  713.6787
C    -8.212085    1.729910   -0.021407    0.001622   -0.008415    0.062305
C    -6.783647    2.221837   -0.020946    0.003636   -0.037749    0.279199
H    -8.276366    0.637194   -0.113133   -0.003436    0.023326   -0.176048
H    -8.827560    2.213868   -0.801338    0.431290    0.152884   -0.114676
H    -8.621140    2.039908    0.959277   -0.431341   -0.116631   -0.140552
O    -6.445769    3.357570    0.218501   -0.002022    0.018152   -0.133746
O    -5.891746    1.203664   -0.062780   -0.003207    0.028180   -0.210249
H    -5.014283    1.669789   -0.456591    0.023817   -0.244889    1.821919
8
* Frequency(10)  713.6787
C    -8.211921    1.729057   -0.015094    0.001622   -0.008415    0.062305
C    -6.783279    2.218012    0.007345    0.003636   -0.037749    0.279199
H    -8.276714    0.639558   -0.130972   -0.003436    0.023326   -0.176048
H    -8.783857    2.229359   -0.812958    0.431290    0.152884   -0.114676
H    -8.664847    2.028090    0.945035   -0.431341   -0.116631   -0.140552
O    -6.445974    3.359410    0.204949   -0.002022    0.018152   -0.133746
O    -5.892071    1.206519   -0.084085   -0.003207    0.028180   -0.210249
H    -5.011870    1.644974   -0.271977    0.023817   -0.244889    1.821919
8
* Frequency(10)  713.6787
C    -8.211736    1.728101   -0.008013    0.001622   -0.008415    0.062305
C    -6.782866    2.213722    0.039075    0.003636   -0.037749    0.279199
H    -8.277104    0.642209   -0.150979   -0.003436    0.023326   -0.176048
H    -8.734844    2.246734   -0.825990    0.431290    0.152884   -0.114676
H    -8.713867    2.014836    0.929061   -0.431341   -0.116631   -0.140552
O    -6.446204    3.361473    0.189749   -0.002022    0.018152   -0.133746
O    -5.892435    1.209722   -0.107978   -0.003207    0.028180   -0.210249
H    -5.009163    1.617144   -0.064925    0.023817   -0.244889    1.821919
