8
* (null), Energy   -1000.0000000
C    -8.211736    1.728101   -0.008013   -0.123040   -0.106821   -0.013832
C    -6.782866    2.213722    0.039075    0.231595   -0.084784   -0.014885
H    -8.277104    0.642209   -0.150979    1.138864   -0.165381   -0.018774
H    -8.734844    2.246734   -0.825990   -0.355236    0.798540    0.692199
H    -8.713867    2.014836    0.929061   -0.377936    0.928711   -0.452529
O    -6.446204    3.361473    0.189749   -0.031809    0.010867    0.001971
O    -5.892435    1.209722   -0.107978   -0.063769    0.015270    0.002937
H    -5.009163    1.617144   -0.064925   -0.182170    0.306375    0.043399
8
* Frequency(18) 1456.8965
C    -8.225719    1.715961   -0.009585   -0.123040   -0.106821   -0.013832
C    -6.756546    2.204087    0.037383    0.231595   -0.084784   -0.014885
H    -8.147678    0.623414   -0.153112    1.138864   -0.165381   -0.018774
H    -8.775214    2.337484   -0.747325   -0.355236    0.798540    0.692199
H    -8.756818    2.120379    0.877634   -0.377936    0.928711   -0.452529
O    -6.449819    3.362708    0.189973   -0.031809    0.010867    0.001971
O    -5.899683    1.211457   -0.107645   -0.063769    0.015270    0.002937
H    -5.029866    1.651962   -0.059993   -0.182170    0.306375    0.043399
8
* Frequency(18) 1456.8965
C    -8.238187    1.705137   -0.010987   -0.123040   -0.106821   -0.013832
C    -6.733079    2.195496    0.035875    0.231595   -0.084784   -0.014885
H    -8.032278    0.606656   -0.155015    1.138864   -0.165381   -0.018774
H    -8.811210    2.418399   -0.677185   -0.355236    0.798540    0.692199
H    -8.795114    2.214485    0.831779   -0.377936    0.928711   -0.452529
O    -6.453042    3.363809    0.190173   -0.031809    0.010867    0.001971
O    -5.906144    1.213005   -0.107347   -0.063769    0.015270    0.002937
H    -5.048325    1.683007   -0.055595   -0.182170    0.306375    0.043399
8
* Frequency(18) 1456.8965
C    -8.247788    1.696801   -0.012066   -0.123040   -0.106821   -0.013832
C    -6.715006    2.188880    0.034714    0.231595   -0.084784   -0.014885
H    -7.943408    0.593751   -0.156480    1.138864   -0.165381   -0.018774
H    -8.838931    2.480712   -0.623170   -0.355236    0.798540    0.692199
H    -8.824606    2.286956    0.796467   -0.377936    0.928711   -0.452529
O    -6.455524    3.364657    0.190326   -0.031809    0.010867    0.001971
O    -5.911120    1.214196   -0.107118   -0.063769    0.015270    0.002937
H    -5.062541    1.706915   -0.052209   -0.182170    0.306375    0.043399
8
* Frequency(18) 1456.8965
C    -8.253483    1.691858   -0.012706   -0.123040   -0.106821   -0.013832
C    -6.704288    2.184956    0.034025    0.231595   -0.084784   -0.014885
H    -7.890699    0.586097   -0.157349    1.138864   -0.165381   -0.018774
H    -8.855372    2.517670   -0.591134   -0.355236    0.798540    0.692199
H    -8.842097    2.329938    0.775523   -0.377936    0.928711   -0.452529
O    -6.456997    3.365160    0.190418   -0.031809    0.010867    0.001971
O    -5.914072    1.214903   -0.106982   -0.063769    0.015270    0.002937
H    -5.070972    1.721094   -0.050200   -0.182170    0.306375    0.043399
8
* Frequency(18) 1456.8965
C    -8.254653    1.690841   -0.012838   -0.123040   -0.106821   -0.013832
C    -6.702084    2.184149    0.033883    0.231595   -0.084784   -0.014885
H    -7.879863    0.584523   -0.157527    1.138864   -0.165381   -0.018774
H    -8.858752    2.525268   -0.584548   -0.355236    0.798540    0.692199
H    -8.845693    2.338775    0.771217   -0.377936    0.928711   -0.452529
O    -6.457299    3.365263    0.190436   -0.031809    0.010867    0.001971
O    -5.914678    1.215048   -0.106954   -0.063769    0.015270    0.002937
H    -5.072705    1.724009   -0.049787   -0.182170    0.306375    0.043399
8
* Frequency(18) 1456.8965
C    -8.251173    1.693862   -0.012447   -0.123040   -0.106821   -0.013832
C    -6.708635    2.186547    0.034304    0.231595   -0.084784   -0.014885
H    -7.912075    0.589201   -0.156996    1.138864   -0.165381   -0.018774
H    -8.848704    2.502682   -0.604126   -0.355236    0.798540    0.692199
H    -8.835003    2.312507    0.784017   -0.377936    0.928711   -0.452529
O    -6.456400    3.364956    0.190381   -0.031809    0.010867    0.001971
O    -5.912875    1.214616   -0.107037   -0.063769    0.015270    0.002937
H    -5.067553    1.715344   -0.051015   -0.182170    0.306375    0.043399
8
* Frequency(18) 1456.8965
C    -8.243420    1.700594   -0.011575   -0.123040   -0.106821   -0.013832
C    -6.723229    2.191890    0.035242    0.231595   -0.084784   -0.014885
H    -7.983843    0.599623   -0.155813    1.138864   -0.165381   -0.018774
H    -8.826318    2.452360   -0.647747   -0.355236    0.798540    0.692199
H    -8.811187    2.253982    0.812534   -0.377936    0.928711   -0.452529
O    -6.454395    3.364271    0.190256   -0.031809    0.010867    0.001971
O    -5.908856    1.213654   -0.107222   -0.063769    0.015270    0.002937
H    -5.056073    1.696037   -0.053750   -0.182170    0.306375    0.043399
8
* Frequency(18) 1456.8965
C    -8.232233    1.710306   -0.010317   -0.123040   -0.106821   -0.013832
C    -6.744286    2.199599    0.036595    0.231595   -0.084784   -0.014885
H    -8.087391    0.614659   -0.154106    1.138864   -0.165381   -0.018774
H    -8.794019    2.379756   -0.710682   -0.355236    0.798540    0.692199
H    -8.776824    2.169542    0.853679   -0.377936    0.928711   -0.452529
O    -6.451503    3.363283    0.190077   -0.031809    0.010867    0.001971
O    -5.903058    1.212266   -0.107489   -0.063769    0.015270    0.002937
H    -5.039510    1.668181   -0.057696   -0.182170    0.306375    0.043399
8
* Frequency(18) 1456.8965
C    -8.218825    1.721947   -0.008810   -0.123040   -0.106821   -0.013832
C    -6.769524    2.208838    0.038217    0.231595   -0.084784   -0.014885
H    -8.211497    0.632682   -0.152060    1.138864   -0.165381   -0.018774
H    -8.755308    2.292736   -0.786114   -0.355236    0.798540    0.692199
H    -8.735639    2.068337    0.902992   -0.377936    0.928711   -0.452529
O    -6.448036    3.362099    0.189863   -0.031809    0.010867    0.001971
O    -5.896109    1.210602   -0.107809   -0.063769    0.015270    0.002937
H    -5.019658    1.634794   -0.062425   -0.182170    0.306375    0.043399
8
* Frequency(18) 1456.8965
C    -8.204648    1.734255   -0.007216   -0.123040   -0.106821   -0.013832
C    -6.796207    2.218606    0.039932    0.231595   -0.084784   -0.014885
H    -8.342712    0.651736   -0.149897    1.138864   -0.165381   -0.018774
H    -8.714379    2.200731   -0.865866   -0.355236    0.798540    0.692199
H    -8.692095    1.961335    0.955131   -0.377936    0.928711   -0.452529
O    -6.444372    3.360847    0.189636   -0.031809    0.010867    0.001971
O    -5.888762    1.208842   -0.108148   -0.063769    0.015270    0.002937
H    -4.998669    1.599494   -0.067425   -0.182170    0.306375    0.043399
8
* Frequency(18) 1456.8965
C    -8.191240    1.745895   -0.005709   -0.123040   -0.106821   -0.013832
C    -6.821445    2.227846    0.041554    0.231595   -0.084784   -0.014885
H    -8.466818    0.669758   -0.147851    1.138864   -0.165381   -0.018774
H    -8.675668    2.113712   -0.941298   -0.355236    0.798540    0.692199
H    -8.650910    1.860130    1.004444   -0.377936    0.928711   -0.452529
O    -6.440905    3.359662    0.189421   -0.031809    0.010867    0.001971
O    -5.881813    1.207178   -0.108468   -0.063769    0.015270    0.002937
H    -4.978817    1.566108   -0.072155   -0.182170    0.306375    0.043399
8
* Frequency(18) 1456.8965
C    -8.180053    1.755608   -0.004451   -0.123040   -0.106821   -0.013832
C    -6.842502    2.235554    0.042908    0.231595   -0.084784   -0.014885
H    -8.570366    0.684795   -0.146145    1.138864   -0.165381   -0.018774
H    -8.643369    2.041107   -1.004234   -0.355236    0.798540    0.692199
H    -8.616547    1.775690    1.045589   -0.377936    0.928711   -0.452529
O    -6.438013    3.358674    0.189242   -0.031809    0.010867    0.001971
O    -5.876015    1.205790   -0.108735   -0.063769    0.015270    0.002937
H    -4.962254    1.538252   -0.076101   -0.182170    0.306375    0.043399
8
* Frequency(18) 1456.8965
C    -8.172299    1.762339   -0.003580   -0.123040   -0.106821   -0.013832
C    -6.857097    2.240897    0.043846    0.231595   -0.084784   -0.014885
H    -8.642134    0.695217   -0.144961    1.138864   -0.165381   -0.018774
H    -8.620983    1.990785   -1.047854   -0.355236    0.798540    0.692199
H    -8.592731    1.717165    1.074106   -0.377936    0.928711   -0.452529
O    -6.436009    3.357989    0.189117   -0.031809    0.010867    0.001971
O    -5.871996    1.204827   -0.108920   -0.063769    0.015270    0.002937
H    -4.950774    1.518945   -0.078835   -0.182170    0.306375    0.043399
8
* Frequency(18) 1456.8965
C    -8.168819    1.765360   -0.003188   -0.123040   -0.106821   -0.013832
C    -6.863647    2.243295    0.044267    0.231595   -0.084784   -0.014885
H    -8.674346    0.699894   -0.144430    1.138864   -0.165381   -0.018774
H    -8.610935    1.968200   -1.067432   -0.355236    0.798540    0.692199
H    -8.582041    1.690897    1.086906   -0.377936    0.928711   -0.452529
O    -6.435109    3.357682    0.189062   -0.031809    0.010867    0.001971
O    -5.870192    1.204396   -0.109003   -0.063769    0.015270    0.002937
H    -4.945622    1.510279   -0.080063   -0.182170    0.306375    0.043399
8
* Frequency(18) 1456.8965
C    -8.169990    1.764344   -0.003320   -0.123040   -0.106821   -0.013832
C    -6.861443    2.242488    0.044125    0.231595   -0.084784   -0.014885
H    -8.663510    0.698321   -0.144609    1.138864   -0.165381   -0.018774
H    -8.614315    1.975797   -1.060846   -0.355236    0.798540    0.692199
H    -8.585637    1.699733    1.082600   -0.377936    0.928711   -0.452529
O    -6.435412    3.357785    0.189080   -0.031809    0.010867    0.001971
O    -5.870799    1.204541   -0.108975   -0.063769    0.015270    0.002937
H    -4.947355    1.513194   -0.079650   -0.182170    0.306375    0.043399
8
* Frequency(18) 1456.8965
C    -8.175685    1.759400   -0.003960   -0.123040   -0.106821   -0.013832
C    -6.850725    2.238564    0.043436    0.231595   -0.084784   -0.014885
H    -8.610801    0.690667   -0.145478    1.138864   -0.165381   -0.018774
H    -8.630756    2.012755   -1.028810   -0.355236    0.798540    0.692199
H    -8.603129    1.742716    1.061656   -0.377936    0.928711   -0.452529
O    -6.436884    3.358288    0.189172   -0.031809    0.010867    0.001971
O    -5.873751    1.205248   -0.108839   -0.063769    0.015270    0.002937
H    -4.955786    1.527374   -0.077641   -0.182170    0.306375    0.043399
8
* Frequency(18) 1456.8965
C    -8.185286    1.751065   -0.005040   -0.123040   -0.106821   -0.013832
C    -6.832653    2.231948    0.042275    0.231595   -0.084784   -0.014885
H    -8.521931    0.677762   -0.146943    1.138864   -0.165381   -0.018774
H    -8.658477    2.075068   -0.974795   -0.355236    0.798540    0.692199
H    -8.632620    1.815187    1.026344   -0.377936    0.928711   -0.452529
O    -6.439366    3.359136    0.189325   -0.031809    0.010867    0.001971
O    -5.878727    1.206439   -0.108610   -0.063769    0.015270    0.002937
H    -4.970002    1.551281   -0.074255   -0.182170    0.306375    0.043399
8
* Frequency(18) 1456.8965
C    -8.197753    1.740240   -0.006441   -0.123040   -0.106821   -0.013832
C    -6.809185    2.223357    0.040767    0.231595   -0.084784   -0.014885
H    -8.406530    0.661004   -0.148845    1.138864   -0.165381   -0.018774
H    -8.694473    2.155984   -0.904655   -0.355236    0.798540    0.692199
H    -8.670917    1.909293    0.980489   -0.377936    0.928711   -0.452529
O    -6.442589    3.360238    0.189525   -0.031809    0.010867    0.001971
O    -5.885188    1.207986   -0.108312   -0.063769    0.015270    0.002937
H    -4.988461    1.582326   -0.069857   -0.182170    0.306375    0.043399
8
* Frequency(18) 1456.8965
C    -8.211736    1.728101   -0.008013   -0.123040   -0.106821   -0.013832
C    -6.782866    2.213722    0.039075    0.231595   -0.084784   -0.014885
H    -8.277104    0.642209   -0.150979    1.138864   -0.165381   -0.018774
H    -8.734844    2.246734   -0.825990   -0.355236    0.798540    0.692199
H    -8.713867    2.014836    0.929061   -0.377936    0.928711   -0.452529
O    -6.446204    3.361473    0.189749   -0.031809    0.010867    0.001971
O    -5.892435    1.209722   -0.107978   -0.063769    0.015270    0.002937
H    -5.009163    1.617144   -0.064925   -0.182170    0.306375    0.043399
