3
* (null), Energy   -1000.0000000
O    -4.000000    0.000000    0.000000   -0.000000    0.000000   -0.000000
H    -2.973650    0.000000    0.000000   -1.414214   -0.000000    0.000000
H    -5.026350    0.000000    0.000000    1.414214   -0.000000    0.000000
3
* Frequency(7) 2970.3029
O    -4.000000    0.000000   -0.000000   -0.000000    0.000000   -0.000000
H    -3.134368   -0.000000    0.000000   -1.414214   -0.000000    0.000000
H    -4.865632   -0.000000    0.000000    1.414214   -0.000000    0.000000
3
* Frequency(7) 2970.3029
O    -4.000000    0.000000   -0.000000   -0.000000    0.000000   -0.000000
H    -3.277670   -0.000000    0.000000   -1.414214   -0.000000    0.000000
H    -4.722330   -0.000000    0.000000    1.414214   -0.000000    0.000000
3
* Frequency(7) 2970.3029
O    -4.000000    0.000000   -0.000000   -0.000000    0.000000   -0.000000
H    -3.388026   -0.000000    0.000000   -1.414214   -0.000000    0.000000
H    -4.611974   -0.000000    0.000000    1.414214   -0.000000    0.000000
3
* Frequency(7) 2970.3029
O    -4.000000    0.000000   -0.000000   -0.000000    0.000000   -0.000000
H    -3.453479   -0.000000    0.000000   -1.414214   -0.000000    0.000000
H    -4.546521   -0.000000    0.000000    1.414214   -0.000000    0.000000
3
* Frequency(7) 2970.3029
O    -4.000000    0.000000   -0.000000   -0.000000    0.000000   -0.000000
H    -3.466934   -0.000000    0.000000   -1.414214   -0.000000    0.000000
H    -4.533066   -0.000000    0.000000    1.414214   -0.000000    0.000000
3
* Frequency(7) 2970.3029
O    -4.000000    0.000000   -0.000000   -0.000000    0.000000   -0.000000
H    -3.426935   -0.000000    0.000000   -1.414214   -0.000000    0.000000
H    -4.573065   -0.000000    0.000000    1.414214   -0.000000    0.000000
3
* Frequency(7) 2970.3029
O    -4.000000    0.000000   -0.000000   -0.000000    0.000000   -0.000000
H    -3.337815   -0.000000    0.000000   -1.414214   -0.000000    0.000000
H    -4.662185   -0.000000    0.000000    1.414214   -0.000000    0.000000
3
* Frequency(7) 2970.3029
O    -4.000000    0.000000   -0.000000   -0.000000    0.000000   -0.000000
H    -3.209232   -0.000000    0.000000   -1.414214   -0.000000    0.000000
H    -4.790768   -0.000000    0.000000    1.414214   -0.000000    0.000000
3
* Frequency(7) 2970.3029
O    -4.000000    0.000000   -0.000000   -0.000000    0.000000   -0.000000
H    -3.055120   -0.000000    0.000000   -1.414214   -0.000000    0.000000
H    -4.944880   -0.000000    0.000000    1.414214   -0.000000    0.000000
3
* Frequency(7) 2970.3029
O    -4.000000   -0.000000    0.000000   -0.000000    0.000000   -0.000000
H    -2.892180    0.000000   -0.000000   -1.414214   -0.000000    0.000000
H    -5.107820    0.000000   -0.000000    1.414214   -0.000000    0.000000
3
* Frequency(7) 2970.3029
O    -4.000000   -0.000000    0.000000   -0.000000    0.000000   -0.000000
H    -2.738068    0.000000   -0.000000   -1.414214   -0.000000    0.000000
H    -5.261932    0.000000   -0.000000    1.414214   -0.000000    0.000000
3
* Frequency(7) 2970.3029
O    -4.000000   -0.000000    0.000000   -0.000000    0.000000   -0.000000
H    -2.609485    0.000000   -0.000000   -1.414214   -0.000000    0.000000
H    -5.390515    0.000000   -0.000000    1.414214   -0.000000    0.000000
3
* Frequency(7) 2970.3029
O    -4.000000   -0.000000    0.000000   -0.000000    0.000000   -0.000000
H    -2.520365    0.000000   -0.000000   -1.414214   -0.000000    0.000000
H    -5.479635    0.000000   -0.000000    1.414214   -0.000000    0.000000
3
* Frequency(7) 2970.3029
O    -4.000000   -0.000000    0.000000   -0.000000    0.000000   -0.000000
H    -2.480366    0.000000   -0.000000   -1.414214   -0.000000    0.000000
H    -5.519634    0.000000   -0.000000    1.414214   -0.000000    0.000000
3
* Frequency(7) 2970.3029
O    -4.000000   -0.000000    0.000000   -0.000000    0.000000   -0.000000
H    -2.493821    0.000000   -0.000000   -1.414214   -0.000000    0.000000
H    -5.506179    0.000000   -0.000000    1.414214   -0.000000    0.000000
3
* Frequency(7) 2970.3029
O    -4.000000   -0.000000    0.000000   -0.000000    0.000000   -0.000000
H    -2.559274    0.000000   -0.000000   -1.414214   -0.000000    0.000000
H    -5.440726    0.000000   -0.000000    1.414214   -0.000000    0.000000
3
* Frequency(7) 2970.3029
O    -4.000000   -0.000000    0.000000   -0.000000    0.000000   -0.000000
H    -2.669630    0.000000   -0.000000   -1.414214   -0.000000    0.000000
H    -5.330370    0.000000   -0.000000    1.414214   -0.000000    0.000000
3
* Frequency(7) 2970.3029
O    -4.000000   -0.000000    0.000000   -0.000000    0.000000   -0.000000
H    -2.812932    0.000000   -0.000000   -1.414214   -0.000000    0.000000
H    -5.187068    0.000000   -0.000000    1.414214   -0.000000    0.000000
3
* Frequency(7) 2970.3029
O    -4.000000   -0.000000    0.000000   -0.000000    0.000000   -0.000000
H    -2.973650    0.000000   -0.000000   -1.414214   -0.000000    0.000000
H    -5.026350    0.000000   -0.000000    1.414214   -0.000000    0.000000
