3
* (null), Energy   -1000.0000000
O    -3.932757   -0.064161    0.020434   -0.100932    0.095790   -0.030507
H    -2.978546    0.059400   -0.018918    0.205611   -1.329717    0.423490
H    -4.058847   -0.973790    0.310134    1.396387   -0.190668    0.060724
3
* Frequency(6) 1616.2681
O    -3.944227   -0.053275    0.016967   -0.100932    0.095790   -0.030507
H    -2.955179   -0.091715    0.029210    0.205611   -1.329717    0.423490
H    -3.900155   -0.995458    0.317035    1.396387   -0.190668    0.060724
3
* Frequency(6) 1616.2681
O    -3.954454   -0.043568    0.013876   -0.100932    0.095790   -0.030507
H    -2.934345   -0.226455    0.072122    0.205611   -1.329717    0.423490
H    -3.758660   -1.014778    0.323188    1.396387   -0.190668    0.060724
3
* Frequency(6) 1616.2681
O    -3.962331   -0.036093    0.011495   -0.100932    0.095790   -0.030507
H    -2.918300   -0.330218    0.105168    0.205611   -1.329717    0.423490
H    -3.649694   -1.029657    0.327927    1.396387   -0.190668    0.060724
3
* Frequency(6) 1616.2681
O    -3.967002   -0.031660    0.010083   -0.100932    0.095790   -0.030507
H    -2.908784   -0.391760    0.124768    0.205611   -1.329717    0.423490
H    -3.585067   -1.038481    0.330737    1.396387   -0.190668    0.060724
3
* Frequency(6) 1616.2681
O    -3.967962   -0.030749    0.009793   -0.100932    0.095790   -0.030507
H    -2.906828   -0.404411    0.128797    0.205611   -1.329717    0.423490
H    -3.571781   -1.040296    0.331315    1.396387   -0.190668    0.060724
3
* Frequency(6) 1616.2681
O    -3.965107   -0.033458    0.010656   -0.100932    0.095790   -0.030507
H    -2.912644   -0.366802    0.116820    0.205611   -1.329717    0.423490
H    -3.611276   -1.034903    0.329597    1.396387   -0.190668    0.060724
3
* Frequency(6) 1616.2681
O    -3.958747   -0.039494    0.012578   -0.100932    0.095790   -0.030507
H    -2.925601   -0.283006    0.090132    0.205611   -1.329717    0.423490
H    -3.699273   -1.022887    0.325771    1.396387   -0.190668    0.060724
3
* Frequency(6) 1616.2681
O    -3.949570   -0.048204    0.015352   -0.100932    0.095790   -0.030507
H    -2.944295   -0.162106    0.051628    0.205611   -1.329717    0.423490
H    -3.826235   -1.005551    0.320249    1.396387   -0.190668    0.060724
3
* Frequency(6) 1616.2681
O    -3.938571   -0.058642    0.018676   -0.100932    0.095790   -0.030507
H    -2.966701   -0.017202    0.005479    0.205611   -1.329717    0.423490
H    -3.978404   -0.984774    0.313632    1.396387   -0.190668    0.060724
3
* Frequency(6) 1616.2681
O    -3.926942   -0.069679    0.022191   -0.100932    0.095790   -0.030507
H    -2.990391    0.136003   -0.043314    0.205611   -1.329717    0.423490
H    -4.139291   -0.962806    0.306636    1.396387   -0.190668    0.060724
3
* Frequency(6) 1616.2681
O    -3.915943   -0.080117    0.025516   -0.100932    0.095790   -0.030507
H    -3.012797    0.280907   -0.089464    0.205611   -1.329717    0.423490
H    -4.291460   -0.942028    0.300018    1.396387   -0.190668    0.060724
3
* Frequency(6) 1616.2681
O    -3.906766   -0.088827    0.028290   -0.100932    0.095790   -0.030507
H    -3.031491    0.401807   -0.127968    0.205611   -1.329717    0.423490
H    -4.418422   -0.924692    0.294497    1.396387   -0.190668    0.060724
3
* Frequency(6) 1616.2681
O    -3.900406   -0.094863    0.030212   -0.100932    0.095790   -0.030507
H    -3.044448    0.485602   -0.154655    0.205611   -1.329717    0.423490
H    -4.506418   -0.912677    0.290671    1.396387   -0.190668    0.060724
3
* Frequency(6) 1616.2681
O    -3.897551   -0.097573    0.031075   -0.100932    0.095790   -0.030507
H    -3.050264    0.523212   -0.166633    0.205611   -1.329717    0.423490
H    -4.545914   -0.907284    0.288953    1.396387   -0.190668    0.060724
3
* Frequency(6) 1616.2681
O    -3.898511   -0.096661    0.030785   -0.100932    0.095790   -0.030507
H    -3.048308    0.510560   -0.162604    0.205611   -1.329717    0.423490
H    -4.532628   -0.909098    0.289531    1.396387   -0.190668    0.060724
3
* Frequency(6) 1616.2681
O    -3.903183   -0.092228    0.029373   -0.100932    0.095790   -0.030507
H    -3.038792    0.449018   -0.143004    0.205611   -1.329717    0.423490
H    -4.468000   -0.917922    0.292341    1.396387   -0.190668    0.060724
3
* Frequency(6) 1616.2681
O    -3.911059   -0.084753    0.026992   -0.100932    0.095790   -0.030507
H    -3.022747    0.345255   -0.109957    0.205611   -1.329717    0.423490
H    -4.359035   -0.932801    0.297080    1.396387   -0.190668    0.060724
3
* Frequency(6) 1616.2681
O    -3.921286   -0.075047    0.023901   -0.100932    0.095790   -0.030507
H    -3.001913    0.210516   -0.067045    0.205611   -1.329717    0.423490
H    -4.217540   -0.952121    0.303233    1.396387   -0.190668    0.060724
3
* Frequency(6) 1616.2681
O    -3.932757   -0.064161    0.020434   -0.100932    0.095790   -0.030507
H    -2.978546    0.059400   -0.018918    0.205611   -1.329717    0.423490
H    -4.058847   -0.973790    0.310134    1.396387   -0.190668    0.060724
