3
Coordinates from ORCA-job H2O_opt E -76.415343134407
  O      -4.000000      0.000000      0.000000
  H      -2.973650      0.000000      0.000000
  H      -3.996500     -0.978550      0.311650
3
Coordinates from ORCA-job H2O_opt E -76.424136289223
  O      -3.961862     -0.036552      0.011641
  H      -2.990466      0.020273     -0.006457
  H      -4.017822     -0.962272      0.306466
3
Coordinates from ORCA-job H2O_opt E -76.425812714720
  O      -3.936529     -0.060637      0.019312
  H      -2.984554      0.050066     -0.015945
  H      -4.049067     -0.967979      0.308283
3
Coordinates from ORCA-job H2O_opt E -76.425912426575
  O      -3.933134     -0.063787      0.020315
  H      -2.978454      0.059127     -0.018831
  H      -4.058562     -0.973890      0.310166
3
Coordinates from ORCA-job H2O_opt E -76.425912747161
  O      -3.932764     -0.064159      0.020434
  H      -2.978542      0.059397     -0.018917
  H      -4.058844     -0.973788      0.310133
3
Coordinates from ORCA-job H2O_opt E -76.425912747174
  O      -3.932757     -0.064161      0.020434
  H      -2.978546      0.059400     -0.018918
  H      -4.058847     -0.973790      0.310134
