3
* (null), Energy   -1000.0000000
O    -3.932757   -0.064161    0.020434   -0.070238    0.065564   -0.020881
H    -2.978546    0.059400   -0.018918    1.391941    0.271080   -0.086334
H    -4.058847   -0.973790    0.310134   -0.277116   -1.311710    0.417755
3
* Frequency(7) 3782.2848
O    -3.940739   -0.056710    0.018061   -0.070238    0.065564   -0.020881
H    -2.820359    0.090207   -0.028729    1.391941    0.271080   -0.086334
H    -4.090340   -1.122859    0.357610   -0.277116   -1.311710    0.417755
3
* Frequency(7) 3782.2848
O    -3.947856   -0.050066    0.015945   -0.070238    0.065564   -0.020881
H    -2.679314    0.117675   -0.037477    1.391941    0.271080   -0.086334
H    -4.118420   -1.255774    0.399941   -0.277116   -1.311710    0.417755
3
* Frequency(7) 3782.2848
O    -3.953337   -0.044950    0.014316   -0.070238    0.065564   -0.020881
H    -2.570696    0.138829   -0.044214    1.391941    0.271080   -0.086334
H    -4.140045   -1.358131    0.432540   -0.277116   -1.311710    0.417755
3
* Frequency(7) 3782.2848
O    -3.956588   -0.041915    0.013349   -0.070238    0.065564   -0.020881
H    -2.506274    0.151375   -0.048210    1.391941    0.271080   -0.086334
H    -4.152870   -1.418840    0.451874   -0.277116   -1.311710    0.417755
3
* Frequency(7) 3782.2848
O    -3.957256   -0.041292    0.013151   -0.070238    0.065564   -0.020881
H    -2.493031    0.153954   -0.049032    1.391941    0.271080   -0.086334
H    -4.155507   -1.431320    0.455849   -0.277116   -1.311710    0.417755
3
* Frequency(7) 3782.2848
O    -3.955269   -0.043146    0.013741   -0.070238    0.065564   -0.020881
H    -2.532400    0.146287   -0.046590    1.391941    0.271080   -0.086334
H    -4.147669   -1.394220    0.444033   -0.277116   -1.311710    0.417755
3
* Frequency(7) 3782.2848
O    -3.950843   -0.047278    0.015057   -0.070238    0.065564   -0.020881
H    -2.620117    0.129204   -0.041149    1.391941    0.271080   -0.086334
H    -4.130206   -1.311559    0.417707   -0.277116   -1.311710    0.417755
3
* Frequency(7) 3782.2848
O    -3.944457   -0.053239    0.016956   -0.070238    0.065564   -0.020881
H    -2.746674    0.104557   -0.033299    1.391941    0.271080   -0.086334
H    -4.105010   -1.192296    0.379724   -0.277116   -1.311710    0.417755
3
* Frequency(7) 3782.2848
O    -3.936803   -0.060384    0.019231   -0.070238    0.065564   -0.020881
H    -2.898359    0.075017   -0.023891    1.391941    0.271080   -0.086334
H    -4.074812   -1.049355    0.334200   -0.277116   -1.311710    0.417755
3
* Frequency(7) 3782.2848
O    -3.928710   -0.067938    0.021637   -0.070238    0.065564   -0.020881
H    -3.058733    0.043784   -0.013944    1.391941    0.271080   -0.086334
H    -4.042883   -0.898224    0.286068   -0.277116   -1.311710    0.417755
3
* Frequency(7) 3782.2848
O    -3.921056   -0.075082    0.023912   -0.070238    0.065564   -0.020881
H    -3.210418    0.014243   -0.004536    1.391941    0.271080   -0.086334
H    -4.012685   -0.755283    0.240544   -0.277116   -1.311710    0.417755
3
* Frequency(7) 3782.2848
O    -3.914670   -0.081043    0.025811   -0.070238    0.065564   -0.020881
H    -3.336975   -0.010404    0.003313    1.391941    0.271080   -0.086334
H    -3.987489   -0.636020    0.202561   -0.277116   -1.311710    0.417755
3
* Frequency(7) 3782.2848
O    -3.910244   -0.085175    0.027127   -0.070238    0.065564   -0.020881
H    -3.424692   -0.027486    0.008754    1.391941    0.271080   -0.086334
H    -3.970026   -0.553360    0.176235   -0.277116   -1.311710    0.417755
3
* Frequency(7) 3782.2848
O    -3.908257   -0.087030    0.027717   -0.070238    0.065564   -0.020881
H    -3.464061   -0.035154    0.011196    1.391941    0.271080   -0.086334
H    -3.962188   -0.516259    0.164419   -0.277116   -1.311710    0.417755
3
* Frequency(7) 3782.2848
O    -3.908925   -0.086406    0.027519   -0.070238    0.065564   -0.020881
H    -3.450818   -0.032574    0.010374    1.391941    0.271080   -0.086334
H    -3.964825   -0.528740    0.168394   -0.277116   -1.311710    0.417755
3
* Frequency(7) 3782.2848
O    -3.912176   -0.083371    0.026552   -0.070238    0.065564   -0.020881
H    -3.386396   -0.020028    0.006379    1.391941    0.271080   -0.086334
H    -3.977650   -0.589448    0.187728   -0.277116   -1.311710    0.417755
3
* Frequency(7) 3782.2848
O    -3.917657   -0.078255    0.024923   -0.070238    0.065564   -0.020881
H    -3.277778    0.001125   -0.000358    1.391941    0.271080   -0.086334
H    -3.999275   -0.691806    0.220327   -0.277116   -1.311710    0.417755
3
* Frequency(7) 3782.2848
O    -3.924774   -0.071612    0.022807   -0.070238    0.065564   -0.020881
H    -3.136733    0.028593   -0.009106    1.391941    0.271080   -0.086334
H    -4.027355   -0.824721    0.262658   -0.277116   -1.311710    0.417755
3
* Frequency(7) 3782.2848
O    -3.932757   -0.064161    0.020434   -0.070238    0.065564   -0.020881
H    -2.978546    0.059400   -0.018918    1.391941    0.271080   -0.086334
H    -4.058847   -0.973790    0.310134   -0.277116   -1.311710    0.417755
