8
* (null), Energy   -1000.0000000
C    -8.215795    1.747651    0.006627    0.082972    0.053317    0.032676
C    -6.780116    2.175487    0.176181   -0.004379    0.000223    0.000671
H    -8.336900    0.702882    0.333197   -0.125739   -1.205063    0.390917
H    -8.495026    1.787828   -1.057969   -0.312097    0.061644   -1.239408
H    -8.868373    2.404449    0.593217   -0.499283    0.518561    0.461322
O    -6.391945    3.099718    0.845370   -0.000010   -0.000742   -0.000567
O    -5.938312    1.386471   -0.528019    0.000340    0.000136    0.000058
H    -5.041754    1.729452   -0.368604   -0.004620   -0.003489   -0.002095
8
* Frequency(20) 3050.2950
C    -8.206366    1.753711    0.010341    0.082972    0.053317    0.032676
C    -6.780613    2.175512    0.176257   -0.004379    0.000223    0.000671
H    -8.351189    0.565933    0.377623   -0.125739   -1.205063    0.390917
H    -8.530495    1.794833   -1.198821   -0.312097    0.061644   -1.239408
H    -8.925113    2.463381    0.645644   -0.499283    0.518561    0.461322
O    -6.391946    3.099634    0.845305   -0.000010   -0.000742   -0.000567
O    -5.938273    1.386487   -0.528012    0.000340    0.000136    0.000058
H    -5.042279    1.729056   -0.368843   -0.004620   -0.003489   -0.002095
8
* Frequency(20) 3050.2950
C    -8.197958    1.759113    0.013652    0.082972    0.053317    0.032676
C    -6.781057    2.175534    0.176325   -0.004379    0.000223    0.000671
H    -8.363931    0.443825    0.417234   -0.125739   -1.205063    0.390917
H    -8.562119    1.801080   -1.324410   -0.312097    0.061644   -1.239408
H    -8.975706    2.515927    0.692390   -0.499283    0.518561    0.461322
O    -6.391947    3.099559    0.845248   -0.000010   -0.000742   -0.000567
O    -5.938238    1.386501   -0.528006    0.000340    0.000136    0.000058
H    -5.042747    1.728702   -0.369055   -0.004620   -0.003489   -0.002095
8
* Frequency(20) 3050.2950
C    -8.191483    1.763274    0.016202    0.082972    0.053317    0.032676
C    -6.781399    2.175552    0.176377   -0.004379    0.000223    0.000671
H    -8.373742    0.349789    0.447739   -0.125739   -1.205063    0.390917
H    -8.586474    1.805890   -1.421126   -0.312097    0.061644   -1.239408
H    -9.014667    2.556392    0.728388   -0.499283    0.518561    0.461322
O    -6.391948    3.099501    0.845203   -0.000010   -0.000742   -0.000567
O    -5.938212    1.386511   -0.528002    0.000340    0.000136    0.000058
H    -5.043108    1.728430   -0.369218   -0.004620   -0.003489   -0.002095
8
* Frequency(20) 3050.2950
C    -8.187643    1.765741    0.017714    0.082972    0.053317    0.032676
C    -6.781601    2.175562    0.176408   -0.004379    0.000223    0.000671
H    -8.379562    0.294017    0.465831   -0.125739   -1.205063    0.390917
H    -8.600918    1.808743   -1.478488   -0.312097    0.061644   -1.239408
H    -9.037774    2.580392    0.749739   -0.499283    0.518561    0.461322
O    -6.391948    3.099466    0.845177   -0.000010   -0.000742   -0.000567
O    -5.938196    1.386518   -0.527999    0.000340    0.000136    0.000058
H    -5.043321    1.728269   -0.369315   -0.004620   -0.003489   -0.002095
8
* Frequency(20) 3050.2950
C    -8.186854    1.766249    0.018025    0.082972    0.053317    0.032676
C    -6.781643    2.175564    0.176415   -0.004379    0.000223    0.000671
H    -8.380758    0.282551    0.469551   -0.125739   -1.205063    0.390917
H    -8.603887    1.809330   -1.490280   -0.312097    0.061644   -1.239408
H    -9.042525    2.585326    0.754128   -0.499283    0.518561    0.461322
O    -6.391948    3.099459    0.845172   -0.000010   -0.000742   -0.000567
O    -5.938193    1.386519   -0.527999    0.000340    0.000136    0.000058
H    -5.043365    1.728236   -0.369335   -0.004620   -0.003489   -0.002095
8
* Frequency(20) 3050.2950
C    -8.189201    1.764741    0.017101    0.082972    0.053317    0.032676
C    -6.781519    2.175558    0.176396   -0.004379    0.000223    0.000671
H    -8.377202    0.316635    0.458494   -0.125739   -1.205063    0.390917
H    -8.595060    1.807586   -1.455225   -0.312097    0.061644   -1.239408
H    -9.028403    2.570659    0.741080   -0.499283    0.518561    0.461322
O    -6.391948    3.099480    0.845188   -0.000010   -0.000742   -0.000567
O    -5.938202    1.386515   -0.528000    0.000340    0.000136    0.000058
H    -5.043235    1.728334   -0.369276   -0.004620   -0.003489   -0.002095
8
* Frequency(20) 3050.2950
C    -8.194429    1.761381    0.015041    0.082972    0.053317    0.032676
C    -6.781243    2.175544    0.176354   -0.004379    0.000223    0.000671
H    -8.369278    0.392575    0.433860   -0.125739   -1.205063    0.390917
H    -8.575393    1.803701   -1.377121   -0.312097    0.061644   -1.239408
H    -8.996940    2.537981    0.712009   -0.499283    0.518561    0.461322
O    -6.391948    3.099527    0.845224   -0.000010   -0.000742   -0.000567
O    -5.938224    1.386507   -0.528004    0.000340    0.000136    0.000058
H    -5.042944    1.728554   -0.369144   -0.004620   -0.003489   -0.002095
8
* Frequency(20) 3050.2950
C    -8.201973    1.756533    0.012070    0.082972    0.053317    0.032676
C    -6.780845    2.175524    0.176293   -0.004379    0.000223    0.000671
H    -8.357846    0.502141    0.398317   -0.125739   -1.205063    0.390917
H    -8.547016    1.798097   -1.264431   -0.312097    0.061644   -1.239408
H    -8.951544    2.490832    0.670065   -0.499283    0.518561    0.461322
O    -6.391947    3.099595    0.845275   -0.000010   -0.000742   -0.000567
O    -5.938255    1.386494   -0.528009    0.000340    0.000136    0.000058
H    -5.042524    1.728871   -0.368953   -0.004620   -0.003489   -0.002095
8
* Frequency(20) 3050.2950
C    -8.211015    1.750723    0.008510    0.082972    0.053317    0.032676
C    -6.780368    2.175499    0.176220   -0.004379    0.000223    0.000671
H    -8.344143    0.633461    0.355717   -0.125739   -1.205063    0.390917
H    -8.513006    1.791379   -1.129369   -0.312097    0.061644   -1.239408
H    -8.897135    2.434323    0.619793   -0.499283    0.518561    0.461322
O    -6.391946    3.099676    0.845337   -0.000010   -0.000742   -0.000567
O    -5.938292    1.386479   -0.528015    0.000340    0.000136    0.000058
H    -5.042020    1.729251   -0.368725   -0.004620   -0.003489   -0.002095
8
* Frequency(20) 3050.2950
C    -8.220575    1.744580    0.004745    0.082972    0.053317    0.032676
C    -6.779863    2.175474    0.176142   -0.004379    0.000223    0.000671
H    -8.329656    0.772304    0.310677   -0.125739   -1.205063    0.390917
H    -8.477047    1.784277   -0.986569   -0.312097    0.061644   -1.239408
H    -8.839610    2.374576    0.566641   -0.499283    0.518561    0.461322
O    -6.391945    3.099761    0.845402   -0.000010   -0.000742   -0.000567
O    -5.938331    1.386464   -0.528022    0.000340    0.000136    0.000058
H    -5.041488    1.729653   -0.368484   -0.004620   -0.003489   -0.002095
8
* Frequency(20) 3050.2950
C    -8.229616    1.738770    0.001184    0.082972    0.053317    0.032676
C    -6.779386    2.175449    0.176069   -0.004379    0.000223    0.000671
H    -8.315954    0.903624    0.268078   -0.125739   -1.205063    0.390917
H    -8.443037    1.777559   -0.851506   -0.312097    0.061644   -1.239408
H    -8.785201    2.318067    0.516369   -0.499283    0.518561    0.461322
O    -6.391944    3.099842    0.845464   -0.000010   -0.000742   -0.000567
O    -5.938368    1.386449   -0.528028    0.000340    0.000136    0.000058
H    -5.040984    1.730034   -0.368255   -0.004620   -0.003489   -0.002095
8
* Frequency(20) 3050.2950
C    -8.237160    1.733922   -0.001787    0.082972    0.053317    0.032676
C    -6.778988    2.175429    0.176008   -0.004379    0.000223    0.000671
H    -8.304522    1.013190    0.232535   -0.125739   -1.205063    0.390917
H    -8.414660    1.771954   -0.738817   -0.312097    0.061644   -1.239408
H    -8.739805    2.270918    0.474425   -0.499283    0.518561    0.461322
O    -6.391943    3.099909    0.845516   -0.000010   -0.000742   -0.000567
O    -5.938399    1.386436   -0.528034    0.000340    0.000136    0.000058
H    -5.040564    1.730351   -0.368065   -0.004620   -0.003489   -0.002095
8
* Frequency(20) 3050.2950
C    -8.242389    1.730562   -0.003846    0.082972    0.053317    0.032676
C    -6.778712    2.175415    0.175966   -0.004379    0.000223    0.000671
H    -8.296598    1.089130    0.207900   -0.125739   -1.205063    0.390917
H    -8.394993    1.768070   -0.660713   -0.312097    0.061644   -1.239408
H    -8.708342    2.238240    0.445354   -0.499283    0.518561    0.461322
O    -6.391942    3.099956    0.845551   -0.000010   -0.000742   -0.000567
O    -5.938421    1.386428   -0.528037    0.000340    0.000136    0.000058
H    -5.040273    1.730571   -0.367933   -0.004620   -0.003489   -0.002095
8
* Frequency(20) 3050.2950
C    -8.244736    1.729054   -0.004770    0.082972    0.053317    0.032676
C    -6.778588    2.175409    0.175947   -0.004379    0.000223    0.000671
H    -8.293042    1.123214    0.196844   -0.125739   -1.205063    0.390917
H    -8.386165    1.766326   -0.625658   -0.312097    0.061644   -1.239408
H    -8.694220    2.223573    0.432306   -0.499283    0.518561    0.461322
O    -6.391942    3.099977    0.845567   -0.000010   -0.000742   -0.000567
O    -5.938430    1.386424   -0.528039    0.000340    0.000136    0.000058
H    -5.040143    1.730669   -0.367874   -0.004620   -0.003489   -0.002095
8
* Frequency(20) 3050.2950
C    -8.243946    1.729562   -0.004459    0.082972    0.053317    0.032676
C    -6.778630    2.175411    0.175953   -0.004379    0.000223    0.000671
H    -8.294238    1.111748    0.200563   -0.125739   -1.205063    0.390917
H    -8.389135    1.766913   -0.637450   -0.312097    0.061644   -1.239408
H    -8.698971    2.228507    0.436695   -0.499283    0.518561    0.461322
O    -6.391942    3.099970    0.845562   -0.000010   -0.000742   -0.000567
O    -5.938427    1.386425   -0.528038    0.000340    0.000136    0.000058
H    -5.040187    1.730636   -0.367894   -0.004620   -0.003489   -0.002095
8
* Frequency(20) 3050.2950
C    -8.240106    1.732029   -0.002947    0.082972    0.053317    0.032676
C    -6.778833    2.175421    0.175984   -0.004379    0.000223    0.000671
H    -8.300057    1.055976    0.218655   -0.125739   -1.205063    0.390917
H    -8.403579    1.769766   -0.694812   -0.312097    0.061644   -1.239408
H    -8.722078    2.252507    0.458046   -0.499283    0.518561    0.461322
O    -6.391942    3.099936    0.845536   -0.000010   -0.000742   -0.000567
O    -5.938411    1.386431   -0.528036    0.000340    0.000136    0.000058
H    -5.040400    1.730475   -0.367991   -0.004620   -0.003489   -0.002095
8
* Frequency(20) 3050.2950
C    -8.233632    1.736190   -0.000397    0.082972    0.053317    0.032676
C    -6.779174    2.175439    0.176037   -0.004379    0.000223    0.000671
H    -8.309869    0.961940    0.249160   -0.125739   -1.205063    0.390917
H    -8.427933    1.774576   -0.791528   -0.312097    0.061644   -1.239408
H    -8.761039    2.292972    0.494044   -0.499283    0.518561    0.461322
O    -6.391943    3.099878    0.845492   -0.000010   -0.000742   -0.000567
O    -5.938385    1.386442   -0.528031    0.000340    0.000136    0.000058
H    -5.040761    1.730203   -0.368154   -0.004620   -0.003489   -0.002095
8
* Frequency(20) 3050.2950
C    -8.225224    1.741592    0.002914    0.082972    0.053317    0.032676
C    -6.779618    2.175461    0.176105   -0.004379    0.000223    0.000671
H    -8.322610    0.839832    0.288771   -0.125739   -1.205063    0.390917
H    -8.459558    1.780822   -0.917116   -0.312097    0.061644   -1.239408
H    -8.811632    2.345518    0.540790   -0.499283    0.518561    0.461322
O    -6.391944    3.099803    0.845434   -0.000010   -0.000742   -0.000567
O    -5.938350    1.386456   -0.528025    0.000340    0.000136    0.000058
H    -5.041229    1.729849   -0.368366   -0.004620   -0.003489   -0.002095
8
* Frequency(20) 3050.2950
C    -8.215795    1.747651    0.006627    0.082972    0.053317    0.032676
C    -6.780116    2.175487    0.176181   -0.004379    0.000223    0.000671
H    -8.336900    0.702882    0.333197   -0.125739   -1.205063    0.390917
H    -8.495026    1.787828   -1.057969   -0.312097    0.061644   -1.239408
H    -8.868373    2.404449    0.593217   -0.499283    0.518561    0.461322
O    -6.391945    3.099718    0.845370   -0.000010   -0.000742   -0.000567
O    -5.938312    1.386471   -0.528019    0.000340    0.000136    0.000058
H    -5.041754    1.729452   -0.368604   -0.004620   -0.003489   -0.002095
