8
* (null), Energy   -1000.0000000
C    -8.215795    1.747651    0.006627    0.000000    0.000000    0.000000
C    -6.780116    2.175487    0.176181    0.000000    0.000000    0.000000
H    -8.336900    0.702882    0.333197    0.000000    0.000000    0.000000
H    -8.495026    1.787828   -1.057969    0.000000    0.000000    0.000000
H    -8.868373    2.404449    0.593217    0.000000    0.000000    0.000000
O    -6.391945    3.099718    0.845370    0.000000    0.000000    0.000000
O    -5.938312    1.386471   -0.528019    0.000000    0.000000    0.000000
H    -5.041754    1.729452   -0.368604    0.000000    0.000000    0.000000
8
* Frequency(4)    0.0000
C    -8.215795    1.747651    0.006627    0.000000    0.000000    0.000000
C    -6.780116    2.175487    0.176181    0.000000    0.000000    0.000000
H    -8.336900    0.702882    0.333197    0.000000    0.000000    0.000000
H    -8.495026    1.787828   -1.057969    0.000000    0.000000    0.000000
H    -8.868373    2.404449    0.593217    0.000000    0.000000    0.000000
O    -6.391945    3.099718    0.845370    0.000000    0.000000    0.000000
O    -5.938312    1.386471   -0.528019    0.000000    0.000000    0.000000
H    -5.041754    1.729452   -0.368604    0.000000    0.000000    0.000000
8
* Frequency(4)    0.0000
C    -8.215795    1.747651    0.006627    0.000000    0.000000    0.000000
C    -6.780116    2.175487    0.176181    0.000000    0.000000    0.000000
H    -8.336900    0.702882    0.333197    0.000000    0.000000    0.000000
H    -8.495026    1.787828   -1.057969    0.000000    0.000000    0.000000
H    -8.868373    2.404449    0.593217    0.000000    0.000000    0.000000
O    -6.391945    3.099718    0.845370    0.000000    0.000000    0.000000
O    -5.938312    1.386471   -0.528019    0.000000    0.000000    0.000000
H    -5.041754    1.729452   -0.368604    0.000000    0.000000    0.000000
8
* Frequency(4)    0.0000
C    -8.215795    1.747651    0.006627    0.000000    0.000000    0.000000
C    -6.780116    2.175487    0.176181    0.000000    0.000000    0.000000
H    -8.336900    0.702882    0.333197    0.000000    0.000000    0.000000
H    -8.495026    1.787828   -1.057969    0.000000    0.000000    0.000000
H    -8.868373    2.404449    0.593217    0.000000    0.000000    0.000000
O    -6.391945    3.099718    0.845370    0.000000    0.000000    0.000000
O    -5.938312    1.386471   -0.528019    0.000000    0.000000    0.000000
H    -5.041754    1.729452   -0.368604    0.000000    0.000000    0.000000
8
* Frequency(4)    0.0000
C    -8.215795    1.747651    0.006627    0.000000    0.000000    0.000000
C    -6.780116    2.175487    0.176181    0.000000    0.000000    0.000000
H    -8.336900    0.702882    0.333197    0.000000    0.000000    0.000000
H    -8.495026    1.787828   -1.057969    0.000000    0.000000    0.000000
H    -8.868373    2.404449    0.593217    0.000000    0.000000    0.000000
O    -6.391945    3.099718    0.845370    0.000000    0.000000    0.000000
O    -5.938312    1.386471   -0.528019    0.000000    0.000000    0.000000
H    -5.041754    1.729452   -0.368604    0.000000    0.000000    0.000000
8
* Frequency(4)    0.0000
C    -8.215795    1.747651    0.006627    0.000000    0.000000    0.000000
C    -6.780116    2.175487    0.176181    0.000000    0.000000    0.000000
H    -8.336900    0.702882    0.333197    0.000000    0.000000    0.000000
H    -8.495026    1.787828   -1.057969    0.000000    0.000000    0.000000
H    -8.868373    2.404449    0.593217    0.000000    0.000000    0.000000
O    -6.391945    3.099718    0.845370    0.000000    0.000000    0.000000
O    -5.938312    1.386471   -0.528019    0.000000    0.000000    0.000000
H    -5.041754    1.729452   -0.368604    0.000000    0.000000    0.000000
8
* Frequency(4)    0.0000
C    -8.215795    1.747651    0.006627    0.000000    0.000000    0.000000
C    -6.780116    2.175487    0.176181    0.000000    0.000000    0.000000
H    -8.336900    0.702882    0.333197    0.000000    0.000000    0.000000
H    -8.495026    1.787828   -1.057969    0.000000    0.000000    0.000000
H    -8.868373    2.404449    0.593217    0.000000    0.000000    0.000000
O    -6.391945    3.099718    0.845370    0.000000    0.000000    0.000000
O    -5.938312    1.386471   -0.528019    0.000000    0.000000    0.000000
H    -5.041754    1.729452   -0.368604    0.000000    0.000000    0.000000
8
* Frequency(4)    0.0000
C    -8.215795    1.747651    0.006627    0.000000    0.000000    0.000000
C    -6.780116    2.175487    0.176181    0.000000    0.000000    0.000000
H    -8.336900    0.702882    0.333197    0.000000    0.000000    0.000000
H    -8.495026    1.787828   -1.057969    0.000000    0.000000    0.000000
H    -8.868373    2.404449    0.593217    0.000000    0.000000    0.000000
O    -6.391945    3.099718    0.845370    0.000000    0.000000    0.000000
O    -5.938312    1.386471   -0.528019    0.000000    0.000000    0.000000
H    -5.041754    1.729452   -0.368604    0.000000    0.000000    0.000000
8
* Frequency(4)    0.0000
C    -8.215795    1.747651    0.006627    0.000000    0.000000    0.000000
C    -6.780116    2.175487    0.176181    0.000000    0.000000    0.000000
H    -8.336900    0.702882    0.333197    0.000000    0.000000    0.000000
H    -8.495026    1.787828   -1.057969    0.000000    0.000000    0.000000
H    -8.868373    2.404449    0.593217    0.000000    0.000000    0.000000
O    -6.391945    3.099718    0.845370    0.000000    0.000000    0.000000
O    -5.938312    1.386471   -0.528019    0.000000    0.000000    0.000000
H    -5.041754    1.729452   -0.368604    0.000000    0.000000    0.000000
8
* Frequency(4)    0.0000
C    -8.215795    1.747651    0.006627    0.000000    0.000000    0.000000
C    -6.780116    2.175487    0.176181    0.000000    0.000000    0.000000
H    -8.336900    0.702882    0.333197    0.000000    0.000000    0.000000
H    -8.495026    1.787828   -1.057969    0.000000    0.000000    0.000000
H    -8.868373    2.404449    0.593217    0.000000    0.000000    0.000000
O    -6.391945    3.099718    0.845370    0.000000    0.000000    0.000000
O    -5.938312    1.386471   -0.528019    0.000000    0.000000    0.000000
H    -5.041754    1.729452   -0.368604    0.000000    0.000000    0.000000
8
* Frequency(4)    0.0000
C    -8.215795    1.747651    0.006627    0.000000    0.000000    0.000000
C    -6.780116    2.175487    0.176181    0.000000    0.000000    0.000000
H    -8.336900    0.702882    0.333197    0.000000    0.000000    0.000000
H    -8.495026    1.787828   -1.057969    0.000000    0.000000    0.000000
H    -8.868373    2.404449    0.593217    0.000000    0.000000    0.000000
O    -6.391945    3.099718    0.845370    0.000000    0.000000    0.000000
O    -5.938312    1.386471   -0.528019    0.000000    0.000000    0.000000
H    -5.041754    1.729452   -0.368604    0.000000    0.000000    0.000000
8
* Frequency(4)    0.0000
C    -8.215795    1.747651    0.006627    0.000000    0.000000    0.000000
C    -6.780116    2.175487    0.176181    0.000000    0.000000    0.000000
H    -8.336900    0.702882    0.333197    0.000000    0.000000    0.000000
H    -8.495026    1.787828   -1.057969    0.000000    0.000000    0.000000
H    -8.868373    2.404449    0.593217    0.000000    0.000000    0.000000
O    -6.391945    3.099718    0.845370    0.000000    0.000000    0.000000
O    -5.938312    1.386471   -0.528019    0.000000    0.000000    0.000000
H    -5.041754    1.729452   -0.368604    0.000000    0.000000    0.000000
8
* Frequency(4)    0.0000
C    -8.215795    1.747651    0.006627    0.000000    0.000000    0.000000
C    -6.780116    2.175487    0.176181    0.000000    0.000000    0.000000
H    -8.336900    0.702882    0.333197    0.000000    0.000000    0.000000
H    -8.495026    1.787828   -1.057969    0.000000    0.000000    0.000000
H    -8.868373    2.404449    0.593217    0.000000    0.000000    0.000000
O    -6.391945    3.099718    0.845370    0.000000    0.000000    0.000000
O    -5.938312    1.386471   -0.528019    0.000000    0.000000    0.000000
H    -5.041754    1.729452   -0.368604    0.000000    0.000000    0.000000
8
* Frequency(4)    0.0000
C    -8.215795    1.747651    0.006627    0.000000    0.000000    0.000000
C    -6.780116    2.175487    0.176181    0.000000    0.000000    0.000000
H    -8.336900    0.702882    0.333197    0.000000    0.000000    0.000000
H    -8.495026    1.787828   -1.057969    0.000000    0.000000    0.000000
H    -8.868373    2.404449    0.593217    0.000000    0.000000    0.000000
O    -6.391945    3.099718    0.845370    0.000000    0.000000    0.000000
O    -5.938312    1.386471   -0.528019    0.000000    0.000000    0.000000
H    -5.041754    1.729452   -0.368604    0.000000    0.000000    0.000000
8
* Frequency(4)    0.0000
C    -8.215795    1.747651    0.006627    0.000000    0.000000    0.000000
C    -6.780116    2.175487    0.176181    0.000000    0.000000    0.000000
H    -8.336900    0.702882    0.333197    0.000000    0.000000    0.000000
H    -8.495026    1.787828   -1.057969    0.000000    0.000000    0.000000
H    -8.868373    2.404449    0.593217    0.000000    0.000000    0.000000
O    -6.391945    3.099718    0.845370    0.000000    0.000000    0.000000
O    -5.938312    1.386471   -0.528019    0.000000    0.000000    0.000000
H    -5.041754    1.729452   -0.368604    0.000000    0.000000    0.000000
8
* Frequency(4)    0.0000
C    -8.215795    1.747651    0.006627    0.000000    0.000000    0.000000
C    -6.780116    2.175487    0.176181    0.000000    0.000000    0.000000
H    -8.336900    0.702882    0.333197    0.000000    0.000000    0.000000
H    -8.495026    1.787828   -1.057969    0.000000    0.000000    0.000000
H    -8.868373    2.404449    0.593217    0.000000    0.000000    0.000000
O    -6.391945    3.099718    0.845370    0.000000    0.000000    0.000000
O    -5.938312    1.386471   -0.528019    0.000000    0.000000    0.000000
H    -5.041754    1.729452   -0.368604    0.000000    0.000000    0.000000
8
* Frequency(4)    0.0000
C    -8.215795    1.747651    0.006627    0.000000    0.000000    0.000000
C    -6.780116    2.175487    0.176181    0.000000    0.000000    0.000000
H    -8.336900    0.702882    0.333197    0.000000    0.000000    0.000000
H    -8.495026    1.787828   -1.057969    0.000000    0.000000    0.000000
H    -8.868373    2.404449    0.593217    0.000000    0.000000    0.000000
O    -6.391945    3.099718    0.845370    0.000000    0.000000    0.000000
O    -5.938312    1.386471   -0.528019    0.000000    0.000000    0.000000
H    -5.041754    1.729452   -0.368604    0.000000    0.000000    0.000000
8
* Frequency(4)    0.0000
C    -8.215795    1.747651    0.006627    0.000000    0.000000    0.000000
C    -6.780116    2.175487    0.176181    0.000000    0.000000    0.000000
H    -8.336900    0.702882    0.333197    0.000000    0.000000    0.000000
H    -8.495026    1.787828   -1.057969    0.000000    0.000000    0.000000
H    -8.868373    2.404449    0.593217    0.000000    0.000000    0.000000
O    -6.391945    3.099718    0.845370    0.000000    0.000000    0.000000
O    -5.938312    1.386471   -0.528019    0.000000    0.000000    0.000000
H    -5.041754    1.729452   -0.368604    0.000000    0.000000    0.000000
8
* Frequency(4)    0.0000
C    -8.215795    1.747651    0.006627    0.000000    0.000000    0.000000
C    -6.780116    2.175487    0.176181    0.000000    0.000000    0.000000
H    -8.336900    0.702882    0.333197    0.000000    0.000000    0.000000
H    -8.495026    1.787828   -1.057969    0.000000    0.000000    0.000000
H    -8.868373    2.404449    0.593217    0.000000    0.000000    0.000000
O    -6.391945    3.099718    0.845370    0.000000    0.000000    0.000000
O    -5.938312    1.386471   -0.528019    0.000000    0.000000    0.000000
H    -5.041754    1.729452   -0.368604    0.000000    0.000000    0.000000
8
* Frequency(4)    0.0000
C    -8.215795    1.747651    0.006627    0.000000    0.000000    0.000000
C    -6.780116    2.175487    0.176181    0.000000    0.000000    0.000000
H    -8.336900    0.702882    0.333197    0.000000    0.000000    0.000000
H    -8.495026    1.787828   -1.057969    0.000000    0.000000    0.000000
H    -8.868373    2.404449    0.593217    0.000000    0.000000    0.000000
O    -6.391945    3.099718    0.845370    0.000000    0.000000    0.000000
O    -5.938312    1.386471   -0.528019    0.000000    0.000000    0.000000
H    -5.041754    1.729452   -0.368604    0.000000    0.000000    0.000000
