8
* (null), Energy   -1000.0000000
C    -8.215795    1.747651    0.006627    0.176481   -0.255244   -0.217052
C    -6.780116    2.175487    0.176181   -0.022621    0.238231    0.186851
H    -8.336900    0.702882    0.333197    0.772420   -0.386425   -0.418879
H    -8.495026    1.787828   -1.057969    0.770280   -0.417502   -0.377910
H    -8.868373    2.404449    0.593217   -0.625562   -0.778675   -0.529884
O    -6.391945    3.099718    0.845370    0.277082    0.177244    0.105687
O    -5.938312    1.386471   -0.528019   -0.435908   -0.037371    0.020612
H    -5.041754    1.729452   -0.368604   -0.229600   -0.434760   -0.318077
8
* Frequency(7)  423.8133
C    -8.195739    1.718644   -0.018040    0.176481   -0.255244   -0.217052
C    -6.782686    2.202560    0.197416   -0.022621    0.238231    0.186851
H    -8.249118    0.658967    0.285594    0.772420   -0.386425   -0.418879
H    -8.407488    1.740381   -1.100916    0.770280   -0.417502   -0.377910
H    -8.939464    2.315957    0.532998   -0.625562   -0.778675   -0.529884
O    -6.360456    3.119861    0.857380    0.277082    0.177244    0.105687
O    -5.987850    1.382224   -0.525676   -0.435908   -0.037371    0.020612
H    -5.067847    1.680044   -0.404752   -0.229600   -0.434760   -0.318077
8
* Frequency(7)  423.8133
C    -8.177856    1.692781   -0.040033    0.176481   -0.255244   -0.217052
C    -6.784979    2.226700    0.216349   -0.022621    0.238231    0.186851
H    -8.170849    0.619811    0.243149    0.772420   -0.386425   -0.418879
H    -8.329436    1.698076   -1.139210    0.770280   -0.417502   -0.377910
H    -9.002852    2.237054    0.479305   -0.625562   -0.778675   -0.529884
O    -6.332380    3.137821    0.868090    0.277082    0.177244    0.105687
O    -6.032021    1.378438   -0.523588   -0.435908   -0.037371    0.020612
H    -5.091112    1.635990   -0.436983   -0.229600   -0.434760   -0.318077
8
* Frequency(7)  423.8133
C    -8.164084    1.672863   -0.056971    0.176481   -0.255244   -0.217052
C    -6.786744    2.245290    0.230930   -0.022621    0.238231    0.186851
H    -8.110574    0.589657    0.210462    0.772420   -0.386425   -0.418879
H    -8.269328    1.665496   -1.168700    0.770280   -0.417502   -0.377910
H    -9.051667    2.176291    0.437957   -0.625562   -0.778675   -0.529884
O    -6.310758    3.151652    0.876337    0.277082    0.177244    0.105687
O    -6.066036    1.375522   -0.521979   -0.435908   -0.037371    0.020612
H    -5.109029    1.602064   -0.461804   -0.229600   -0.434760   -0.318077
8
* Frequency(7)  423.8133
C    -8.155917    1.661050   -0.067016    0.176481   -0.255244   -0.217052
C    -6.787791    2.256316    0.239578   -0.022621    0.238231    0.186851
H    -8.074825    0.571772    0.191076    0.772420   -0.386425   -0.418879
H    -8.233678    1.646174   -1.186190    0.770280   -0.417502   -0.377910
H    -9.080620    2.140253    0.413433   -0.625562   -0.778675   -0.529884
O    -6.297934    3.159856    0.881228    0.277082    0.177244    0.105687
O    -6.086211    1.373792   -0.521025   -0.435908   -0.037371    0.020612
H    -5.119655    1.581943   -0.476525   -0.229600   -0.434760   -0.318077
8
* Frequency(7)  423.8133
C    -8.154237    1.658621   -0.069081    0.176481   -0.255244   -0.217052
C    -6.788006    2.258583    0.241355   -0.022621    0.238231    0.186851
H    -8.067476    0.568096    0.187090    0.772420   -0.386425   -0.418879
H    -8.226349    1.642201   -1.189786    0.770280   -0.417502   -0.377910
H    -9.086572    2.132844    0.408391   -0.625562   -0.778675   -0.529884
O    -6.295298    3.161542    0.882234    0.277082    0.177244    0.105687
O    -6.090358    1.373436   -0.520829   -0.435908   -0.037371    0.020612
H    -5.121840    1.577806   -0.479551   -0.229600   -0.434760   -0.318077
8
* Frequency(7)  423.8133
C    -8.159229    1.665841   -0.062942    0.176481   -0.255244   -0.217052
C    -6.787366    2.251845    0.236070   -0.022621    0.238231    0.186851
H    -8.089323    0.579025    0.198938    0.772420   -0.386425   -0.418879
H    -8.248136    1.654010   -1.179097    0.770280   -0.417502   -0.377910
H    -9.068878    2.154868    0.423378   -0.625562   -0.778675   -0.529884
O    -6.303135    3.156529    0.879245    0.277082    0.177244    0.105687
O    -6.078029    1.374493   -0.521412   -0.435908   -0.037371    0.020612
H    -5.115346    1.590103   -0.470555   -0.229600   -0.434760   -0.318077
8
* Frequency(7)  423.8133
C    -8.170350    1.681925   -0.049264    0.176481   -0.255244   -0.217052
C    -6.785941    2.236832    0.224296   -0.022621    0.238231    0.186851
H    -8.137999    0.603377    0.225334    0.772420   -0.386425   -0.418879
H    -8.296677    1.680320   -1.155282    0.770280   -0.417502   -0.377910
H    -9.029457    2.203938    0.456770   -0.625562   -0.778675   -0.529884
O    -6.320596    3.145359    0.872584    0.277082    0.177244    0.105687
O    -6.050559    1.376848   -0.522711   -0.435908   -0.037371    0.020612
H    -5.100877    1.617500   -0.450510   -0.229600   -0.434760   -0.318077
8
* Frequency(7)  423.8133
C    -8.186396    1.705133   -0.029530    0.176481   -0.255244   -0.217052
C    -6.783884    2.215172    0.207307   -0.022621    0.238231    0.186851
H    -8.208229    0.638511    0.263420    0.772420   -0.386425   -0.418879
H    -8.366712    1.718280   -1.120922    0.770280   -0.417502   -0.377910
H    -8.972580    2.274736    0.504948   -0.625562   -0.778675   -0.529884
O    -6.345788    3.129244    0.862975    0.277082    0.177244    0.105687
O    -6.010926    1.380246   -0.524585   -0.435908   -0.037371    0.020612
H    -5.080001    1.657029   -0.421590   -0.229600   -0.434760   -0.318077
8
* Frequency(7)  423.8133
C    -8.205628    1.732947   -0.005877    0.176481   -0.255244   -0.217052
C    -6.781419    2.189211    0.186945   -0.022621    0.238231    0.186851
H    -8.292402    0.680621    0.309066    0.772420   -0.386425   -0.418879
H    -8.450652    1.763776   -1.079739    0.770280   -0.417502   -0.377910
H    -8.904410    2.359591    0.562691   -0.625562   -0.778675   -0.529884
O    -6.375983    3.109929    0.851458    0.277082    0.177244    0.105687
O    -5.963423    1.384319   -0.526831   -0.435908   -0.037371    0.020612
H    -5.054981    1.704407   -0.386928   -0.229600   -0.434760   -0.318077
8
* Frequency(7)  423.8133
C    -8.225962    1.762356    0.019131    0.176481   -0.255244   -0.217052
C    -6.778813    2.161762    0.165417   -0.022621    0.238231    0.186851
H    -8.381398    0.725144    0.357328    0.772420   -0.386425   -0.418879
H    -8.539401    1.811879   -1.036198    0.770280   -0.417502   -0.377910
H    -8.832335    2.449307    0.623743   -0.625562   -0.778675   -0.529884
O    -6.407907    3.089508    0.839281    0.277082    0.177244    0.105687
O    -5.913200    1.388624   -0.529206   -0.435908   -0.037371    0.020612
H    -5.028527    1.754498   -0.350281   -0.229600   -0.434760   -0.318077
8
* Frequency(7)  423.8133
C    -8.245193    1.790170    0.042784    0.176481   -0.255244   -0.217052
C    -6.776348    2.135802    0.145055   -0.022621    0.238231    0.186851
H    -8.465571    0.767254    0.402975    0.772420   -0.386425   -0.418879
H    -8.623341    1.857376   -0.995016    0.770280   -0.417502   -0.377910
H    -8.764165    2.534162    0.681486   -0.625562   -0.778675   -0.529884
O    -6.438102    3.070193    0.827764    0.277082    0.177244    0.105687
O    -5.865697    1.392697   -0.531452   -0.435908   -0.037371    0.020612
H    -5.003507    1.801875   -0.315619   -0.229600   -0.434760   -0.318077
8
* Frequency(7)  423.8133
C    -8.261239    1.813378    0.062519    0.176481   -0.255244   -0.217052
C    -6.774291    2.114141    0.128066   -0.022621    0.238231    0.186851
H    -8.535801    0.802388    0.441060    0.772420   -0.386425   -0.418879
H    -8.693376    1.895336   -0.960656    0.770280   -0.417502   -0.377910
H    -8.707288    2.604961    0.729664   -0.625562   -0.778675   -0.529884
O    -6.463295    3.054077    0.818155    0.277082    0.177244    0.105687
O    -5.826064    1.396095   -0.533326   -0.435908   -0.037371    0.020612
H    -4.982631    1.841405   -0.286699   -0.229600   -0.434760   -0.318077
8
* Frequency(7)  423.8133
C    -8.272361    1.829462    0.076197    0.176481   -0.255244   -0.217052
C    -6.772865    2.099128    0.116291   -0.022621    0.238231    0.186851
H    -8.584476    0.826740    0.467457    0.772420   -0.386425   -0.418879
H    -8.741917    1.921646   -0.936841    0.770280   -0.417502   -0.377910
H    -8.667867    2.654031    0.763056   -0.625562   -0.778675   -0.529884
O    -6.480756    3.042908    0.811495    0.277082    0.177244    0.105687
O    -5.798594    1.398450   -0.534625   -0.435908   -0.037371    0.020612
H    -4.968162    1.868802   -0.266654   -0.229600   -0.434760   -0.318077
8
* Frequency(7)  423.8133
C    -8.277352    1.836682    0.082336    0.176481   -0.255244   -0.217052
C    -6.772225    2.092390    0.111006   -0.022621    0.238231    0.186851
H    -8.606324    0.837669    0.479304    0.772420   -0.386425   -0.418879
H    -8.763703    1.933454   -0.926152    0.770280   -0.417502   -0.377910
H    -8.650174    2.676055    0.778043   -0.625562   -0.778675   -0.529884
O    -6.488593    3.037895    0.808506    0.277082    0.177244    0.105687
O    -5.786265    1.399507   -0.535208   -0.435908   -0.037371    0.020612
H    -4.961668    1.881099   -0.257658   -0.229600   -0.434760   -0.318077
8
* Frequency(7)  423.8133
C    -8.275673    1.834253    0.080271    0.176481   -0.255244   -0.217052
C    -6.772441    2.094657    0.112784   -0.022621    0.238231    0.186851
H    -8.598974    0.833993    0.475319    0.772420   -0.386425   -0.418879
H    -8.756375    1.929482   -0.929747    0.770280   -0.417502   -0.377910
H    -8.656125    2.668646    0.773001   -0.625562   -0.778675   -0.529884
O    -6.485956    3.039581    0.809511    0.277082    0.177244    0.105687
O    -5.790412    1.399151   -0.535012   -0.435908   -0.037371    0.020612
H    -4.963853    1.876962   -0.260684   -0.229600   -0.434760   -0.318077
8
* Frequency(7)  423.8133
C    -8.267505    1.822440    0.070225    0.176481   -0.255244   -0.217052
C    -6.773488    2.105683    0.121432   -0.022621    0.238231    0.186851
H    -8.563225    0.816108    0.455932    0.772420   -0.386425   -0.418879
H    -8.720725    1.910159   -0.947238    0.770280   -0.417502   -0.377910
H    -8.685078    2.632608    0.748477   -0.625562   -0.778675   -0.529884
O    -6.473132    3.047784    0.814402    0.277082    0.177244    0.105687
O    -5.810587    1.397421   -0.534058   -0.435908   -0.037371    0.020612
H    -4.974479    1.856841   -0.275405   -0.229600   -0.434760   -0.318077
8
* Frequency(7)  423.8133
C    -8.253734    1.802522    0.053288    0.176481   -0.255244   -0.217052
C    -6.775253    2.124273    0.136013   -0.022621    0.238231    0.186851
H    -8.502950    0.785954    0.423245    0.772420   -0.386425   -0.418879
H    -8.660617    1.877580   -0.976728    0.770280   -0.417502   -0.377910
H    -8.733893    2.571845    0.707129   -0.625562   -0.778675   -0.529884
O    -6.451511    3.061615    0.822650    0.277082    0.177244    0.105687
O    -5.844602    1.394505   -0.532450   -0.435908   -0.037371    0.020612
H    -4.992396    1.822915   -0.300226   -0.229600   -0.434760   -0.318077
8
* Frequency(7)  423.8133
C    -8.235851    1.776659    0.031294    0.176481   -0.255244   -0.217052
C    -6.777545    2.148413    0.154946   -0.022621    0.238231    0.186851
H    -8.424681    0.746798    0.380801    0.772420   -0.386425   -0.418879
H    -8.582565    1.835275   -1.015021    0.770280   -0.417502   -0.377910
H    -8.797281    2.492942    0.653436   -0.625562   -0.778675   -0.529884
O    -6.423434    3.079575    0.833359    0.277082    0.177244    0.105687
O    -5.888773    1.390718   -0.530361   -0.435908   -0.037371    0.020612
H    -5.015661    1.778861   -0.332457   -0.229600   -0.434760   -0.318077
8
* Frequency(7)  423.8133
C    -8.215795    1.747651    0.006627    0.176481   -0.255244   -0.217052
C    -6.780116    2.175487    0.176181   -0.022621    0.238231    0.186851
H    -8.336900    0.702882    0.333197    0.772420   -0.386425   -0.418879
H    -8.495026    1.787828   -1.057969    0.770280   -0.417502   -0.377910
H    -8.868373    2.404449    0.593217   -0.625562   -0.778675   -0.529884
O    -6.391945    3.099718    0.845370    0.277082    0.177244    0.105687
O    -5.938312    1.386471   -0.528019   -0.435908   -0.037371    0.020612
H    -5.041754    1.729452   -0.368604   -0.229600   -0.434760   -0.318077
