8
* (null), Energy   -1000.0000000
C    -8.215795    1.747651    0.006627    0.489018    0.180142    0.084144
C    -6.780116    2.175487    0.176181    0.258928    0.039726   -0.008251
H    -8.336900    0.702882    0.333197    0.391736    0.207264    0.124328
H    -8.495026    1.787828   -1.057969    0.368412    0.204740    0.120078
H    -8.868373    2.404449    0.593217    0.720706    0.318341    0.174628
O    -6.391945    3.099718    0.845370   -0.547484    0.197104    0.216970
O    -5.938312    1.386471   -0.528019   -0.124023   -0.339007   -0.245954
H    -5.041754    1.729452   -0.368604    0.265050   -1.097920   -0.863311
8
* Frequency(9)  593.8525
C    -8.160220    1.768124    0.016190    0.489018    0.180142    0.084144
C    -6.750690    2.180001    0.175243    0.258928    0.039726   -0.008251
H    -8.292381    0.726437    0.347326    0.391736    0.207264    0.124328
H    -8.453158    1.811096   -1.044323    0.368412    0.204740    0.120078
H    -8.786468    2.440627    0.613063    0.720706    0.318341    0.174628
O    -6.454164    3.122118    0.870027   -0.547484    0.197104    0.216970
O    -5.952406    1.347945   -0.555970   -0.124023   -0.339007   -0.245954
H    -5.011632    1.604680   -0.466715    0.265050   -1.097920   -0.863311
8
* Frequency(9)  593.8525
C    -8.110669    1.786377    0.024716    0.489018    0.180142    0.084144
C    -6.724453    2.184027    0.174407    0.258928    0.039726   -0.008251
H    -8.252687    0.747439    0.359924    0.391736    0.207264    0.124328
H    -8.415827    1.831842   -1.032155    0.368412    0.204740    0.120078
H    -8.713439    2.472885    0.630758    0.720706    0.318341    0.174628
O    -6.509640    3.142091    0.892013   -0.547484    0.197104    0.216970
O    -5.964973    1.313594   -0.580893   -0.124023   -0.339007   -0.245954
H    -4.984775    1.493428   -0.554194    0.265050   -1.097920   -0.863311
8
* Frequency(9)  593.8525
C    -8.072509    1.800434    0.031282    0.489018    0.180142    0.084144
C    -6.704248    2.187127    0.173763    0.258928    0.039726   -0.008251
H    -8.222118    0.763612    0.369626    0.391736    0.207264    0.124328
H    -8.387079    1.847819   -1.022785    0.368412    0.204740    0.120078
H    -8.657200    2.497726    0.644384    0.720706    0.318341    0.174628
O    -6.552363    3.157471    0.908944   -0.547484    0.197104    0.216970
O    -5.974651    1.287140   -0.600085   -0.124023   -0.339007   -0.245954
H    -4.964092    1.407753   -0.621562    0.265050   -1.097920   -0.863311
8
* Frequency(9)  593.8525
C    -8.049876    1.808772    0.035177    0.489018    0.180142    0.084144
C    -6.692264    2.188965    0.173381    0.258928    0.039726   -0.008251
H    -8.203988    0.773205    0.375380    0.391736    0.207264    0.124328
H    -8.370028    1.857294   -1.017228    0.368412    0.204740    0.120078
H    -8.623844    2.512459    0.652466    0.720706    0.318341    0.174628
O    -6.577701    3.166594    0.918985   -0.547484    0.197104    0.216970
O    -5.980391    1.271450   -0.611468   -0.124023   -0.339007   -0.245954
H    -4.951825    1.356939   -0.661517    0.265050   -1.097920   -0.863311
8
* Frequency(9)  593.8525
C    -8.045223    1.810486    0.035977    0.489018    0.180142    0.084144
C    -6.689800    2.189343    0.173303    0.258928    0.039726   -0.008251
H    -8.200261    0.775177    0.376563    0.391736    0.207264    0.124328
H    -8.366523    1.859242   -1.016085    0.368412    0.204740    0.120078
H    -8.616987    2.515488    0.654128    0.720706    0.318341    0.174628
O    -6.582910    3.168469    0.921050   -0.547484    0.197104    0.216970
O    -5.981571    1.268224   -0.613809   -0.124023   -0.339007   -0.245954
H    -4.949303    1.346493   -0.669731    0.265050   -1.097920   -0.863311
8
* Frequency(9)  593.8525
C    -8.059055    1.805391    0.033597    0.489018    0.180142    0.084144
C    -6.697124    2.188219    0.173536    0.258928    0.039726   -0.008251
H    -8.211341    0.769315    0.373047    0.391736    0.207264    0.124328
H    -8.376943    1.853451   -1.019481    0.368412    0.204740    0.120078
H    -8.637371    2.506484    0.649189    0.720706    0.318341    0.174628
O    -6.567425    3.162894    0.914913   -0.547484    0.197104    0.216970
O    -5.978063    1.277813   -0.606852   -0.124023   -0.339007   -0.245954
H    -4.956800    1.377547   -0.645313    0.265050   -1.097920   -0.863311
8
* Frequency(9)  593.8525
C    -8.089871    1.794039    0.028295    0.489018    0.180142    0.084144
C    -6.713441    2.185716    0.174056    0.258928    0.039726   -0.008251
H    -8.236027    0.756254    0.365212    0.391736    0.207264    0.124328
H    -8.400159    1.840549   -1.027048    0.368412    0.204740    0.120078
H    -8.682788    2.486423    0.638184    0.720706    0.318341    0.174628
O    -6.532924    3.150473    0.901240   -0.547484    0.197104    0.216970
O    -5.970248    1.299176   -0.591353   -0.124023   -0.339007   -0.245954
H    -4.973503    1.446734   -0.590910    0.265050   -1.097920   -0.863311
8
* Frequency(9)  593.8525
C    -8.134333    1.777660    0.020644    0.489018    0.180142    0.084144
C    -6.736983    2.182104    0.174806    0.258928    0.039726   -0.008251
H    -8.271644    0.737409    0.353908    0.391736    0.207264    0.124328
H    -8.433656    1.821934   -1.037966    0.368412    0.204740    0.120078
H    -8.748316    2.457479    0.622307    0.720706    0.318341    0.174628
O    -6.483146    3.132552    0.881513   -0.547484    0.197104    0.216970
O    -5.958971    1.329999   -0.568990   -0.124023   -0.339007   -0.245954
H    -4.997602    1.546559   -0.512416    0.265050   -1.097920   -0.863311
8
* Frequency(9)  593.8525
C    -8.187623    1.758029    0.011475    0.489018    0.180142    0.084144
C    -6.765199    2.177775    0.175706    0.258928    0.039726   -0.008251
H    -8.314333    0.714822    0.340359    0.391736    0.207264    0.124328
H    -8.473803    1.799623   -1.051051    0.368412    0.204740    0.120078
H    -8.826854    2.422788    0.603277    0.720706    0.318341    0.174628
O    -6.423485    3.111073    0.857869   -0.547484    0.197104    0.216970
O    -5.945456    1.366942   -0.542188   -0.124023   -0.339007   -0.245954
H    -5.026485    1.666203   -0.418338    0.265050   -1.097920   -0.863311
8
* Frequency(9)  593.8525
C    -8.243966    1.737274    0.001780    0.489018    0.180142    0.084144
C    -6.795032    2.173198    0.176656    0.258928    0.039726   -0.008251
H    -8.359467    0.690942    0.326035    0.391736    0.207264    0.124328
H    -8.516250    1.776033   -1.064886    0.368412    0.204740    0.120078
H    -8.909891    2.386110    0.583157    0.720706    0.318341    0.174628
O    -6.360406    3.088364    0.832870   -0.547484    0.197104    0.216970
O    -5.931167    1.406001   -0.513850   -0.124023   -0.339007   -0.245954
H    -5.057023    1.792702   -0.318871    0.265050   -1.097920   -0.863311
8
* Frequency(9)  593.8525
C    -8.297256    1.717643   -0.007390    0.489018    0.180142    0.084144
C    -6.823248    2.168869    0.177555    0.258928    0.039726   -0.008251
H    -8.402156    0.668356    0.312486    0.391736    0.207264    0.124328
H    -8.556397    1.753722   -1.077971    0.368412    0.204740    0.120078
H    -8.988429    2.351420    0.564127    0.720706    0.318341    0.174628
O    -6.300744    3.066885    0.809226   -0.547484    0.197104    0.216970
O    -5.917652    1.442944   -0.487047   -0.124023   -0.339007   -0.245954
H    -5.085906    1.912346   -0.224793    0.265050   -1.097920   -0.863311
8
* Frequency(9)  593.8525
C    -8.341719    1.701264   -0.015040    0.489018    0.180142    0.084144
C    -6.846791    2.165257    0.178306    0.258928    0.039726   -0.008251
H    -8.437773    0.649511    0.301182    0.391736    0.207264    0.124328
H    -8.589894    1.735107   -1.088889    0.368412    0.204740    0.120078
H    -9.053957    2.322476    0.548250    0.720706    0.318341    0.174628
O    -6.250966    3.048963    0.789499   -0.547484    0.197104    0.216970
O    -5.906375    1.473767   -0.464685   -0.124023   -0.339007   -0.245954
H    -5.110005    2.012170   -0.146299    0.265050   -1.097920   -0.863311
8
* Frequency(9)  593.8525
C    -8.372535    1.689912   -0.020343    0.489018    0.180142    0.084144
C    -6.863108    2.162754    0.178826    0.258928    0.039726   -0.008251
H    -8.462459    0.636450    0.293347    0.391736    0.207264    0.124328
H    -8.613110    1.722204   -1.096456    0.368412    0.204740    0.120078
H    -9.099374    2.302415    0.537245    0.720706    0.318341    0.174628
O    -6.216465    3.036543    0.775826   -0.547484    0.197104    0.216970
O    -5.898560    1.495130   -0.449185   -0.124023   -0.339007   -0.245954
H    -5.126708    2.081358   -0.091895    0.265050   -1.097920   -0.863311
8
* Frequency(9)  593.8525
C    -8.386366    1.684817   -0.022723    0.489018    0.180142    0.084144
C    -6.870431    2.161630    0.179059    0.258928    0.039726   -0.008251
H    -8.473539    0.630588    0.289831    0.391736    0.207264    0.124328
H    -8.623530    1.716414   -1.099852    0.368412    0.204740    0.120078
H    -9.119758    2.293411    0.532306    0.720706    0.318341    0.174628
O    -6.200980    3.030968    0.769690   -0.547484    0.197104    0.216970
O    -5.895052    1.504719   -0.442229   -0.124023   -0.339007   -0.245954
H    -5.134205    2.112412   -0.067478    0.265050   -1.097920   -0.863311
8
* Frequency(9)  593.8525
C    -8.381714    1.686531   -0.021922    0.489018    0.180142    0.084144
C    -6.867968    2.162008    0.178980    0.258928    0.039726   -0.008251
H    -8.469812    0.632560    0.291014    0.391736    0.207264    0.124328
H    -8.620025    1.718362   -1.098710    0.368412    0.204740    0.120078
H    -9.112901    2.296439    0.533967    0.720706    0.318341    0.174628
O    -6.206189    3.032843    0.771754   -0.547484    0.197104    0.216970
O    -5.896232    1.501493   -0.444569   -0.124023   -0.339007   -0.245954
H    -5.131683    2.101966   -0.075692    0.265050   -1.097920   -0.863311
8
* Frequency(9)  593.8525
C    -8.359081    1.694868   -0.018028    0.489018    0.180142    0.084144
C    -6.855984    2.163847    0.178599    0.258928    0.039726   -0.008251
H    -8.451682    0.642152    0.296768    0.391736    0.207264    0.124328
H    -8.602974    1.727837   -1.093152    0.368412    0.204740    0.120078
H    -9.079545    2.311173    0.542050    0.720706    0.318341    0.174628
O    -6.231528    3.041965    0.781796   -0.547484    0.197104    0.216970
O    -5.901972    1.485803   -0.455952   -0.124023   -0.339007   -0.245954
H    -5.119416    2.051152   -0.115647    0.265050   -1.097920   -0.863311
8
* Frequency(9)  593.8525
C    -8.320921    1.708926   -0.011462    0.489018    0.180142    0.084144
C    -6.835779    2.166947    0.177955    0.258928    0.039726   -0.008251
H    -8.421113    0.658326    0.306470    0.391736    0.207264    0.124328
H    -8.574226    1.743814   -1.083782    0.368412    0.204740    0.120078
H    -9.023306    2.336014    0.555676    0.720706    0.318341    0.174628
O    -6.274250    3.057346    0.798727   -0.547484    0.197104    0.216970
O    -5.911650    1.459349   -0.475145   -0.124023   -0.339007   -0.245954
H    -5.098733    1.965477   -0.183015    0.265050   -1.097920   -0.863311
8
* Frequency(9)  593.8525
C    -8.271369    1.727179   -0.002935    0.489018    0.180142    0.084144
C    -6.809542    2.170972    0.177119    0.258928    0.039726   -0.008251
H    -8.381419    0.679328    0.319068    0.391736    0.207264    0.124328
H    -8.536895    1.764560   -1.071615    0.368412    0.204740    0.120078
H    -8.950277    2.368272    0.573371    0.720706    0.318341    0.174628
O    -6.329726    3.077319    0.820712   -0.547484    0.197104    0.216970
O    -5.924217    1.424998   -0.500067   -0.124023   -0.339007   -0.245954
H    -5.071876    1.854225   -0.270494    0.265050   -1.097920   -0.863311
8
* Frequency(9)  593.8525
C    -8.215795    1.747651    0.006627    0.489018    0.180142    0.084144
C    -6.780116    2.175487    0.176181    0.258928    0.039726   -0.008251
H    -8.336900    0.702882    0.333197    0.391736    0.207264    0.124328
H    -8.495026    1.787828   -1.057969    0.368412    0.204740    0.120078
H    -8.868373    2.404449    0.593217    0.720706    0.318341    0.174628
O    -6.391945    3.099718    0.845370   -0.547484    0.197104    0.216970
O    -5.938312    1.386471   -0.528019   -0.124023   -0.339007   -0.245954
H    -5.041754    1.729452   -0.368604    0.265050   -1.097920   -0.863311
