8
* (null), Energy   -1000.0000000
C    -8.215795    1.747651    0.006627   -0.000644    0.004681   -0.006322
C    -6.780116    2.175487    0.176181   -0.002327    0.015336   -0.019643
H    -8.336900    0.702882    0.333197   -0.155819    0.369667    1.126069
H    -8.495026    1.787828   -1.057969    0.271721   -1.159303   -0.114682
H    -8.868373    2.404449    0.593217   -0.094798    0.647606   -0.830742
O    -6.391945    3.099718    0.845370    0.009619   -0.064555    0.083786
O    -5.938312    1.386471   -0.528019   -0.008801    0.058992   -0.076382
H    -5.041754    1.729452   -0.368604    0.001312   -0.008175    0.011236
8
* Frequency(6)   78.7808
C    -8.215868    1.748183    0.005909   -0.000644    0.004681   -0.006322
C    -6.780380    2.177229    0.173949   -0.002327    0.015336   -0.019643
H    -8.354608    0.744893    0.461169   -0.155819    0.369667    1.126069
H    -8.464147    1.656079   -1.071002    0.271721   -1.159303   -0.114682
H    -8.879146    2.478046    0.498808   -0.094798    0.647606   -0.830742
O    -6.390852    3.092382    0.854891    0.009619   -0.064555    0.083786
O    -5.939312    1.393176   -0.536699   -0.008801    0.058992   -0.076382
H    -5.041605    1.728523   -0.367328    0.001312   -0.008175    0.011236
8
* Frequency(6)   78.7808
C    -8.215933    1.748658    0.005268   -0.000644    0.004681   -0.006322
C    -6.780616    2.178783    0.171958   -0.002327    0.015336   -0.019643
H    -8.370397    0.782351    0.575273   -0.155819    0.369667    1.126069
H    -8.436613    1.538607   -1.082623    0.271721   -1.159303   -0.114682
H    -8.888752    2.543668    0.414629   -0.094798    0.647606   -0.830742
O    -6.389877    3.085841    0.863381    0.009619   -0.064555    0.083786
O    -5.940203    1.399153   -0.544439   -0.008801    0.058992   -0.076382
H    -5.041472    1.727695   -0.366189    0.001312   -0.008175    0.011236
8
* Frequency(6)   78.7808
C    -8.215983    1.749023    0.004775   -0.000644    0.004681   -0.006322
C    -6.780798    2.179980    0.170425   -0.002327    0.015336   -0.019643
H    -8.382556    0.811198    0.663145   -0.155819    0.369667    1.126069
H    -8.415410    1.448142   -1.091572    0.271721   -1.159303   -0.114682
H    -8.896149    2.594203    0.349803   -0.094798    0.647606   -0.830742
O    -6.389127    3.080803    0.869920    0.009619   -0.064555    0.083786
O    -5.940890    1.403756   -0.550399   -0.008801    0.058992   -0.076382
H    -5.041370    1.727057   -0.365312    0.001312   -0.008175    0.011236
8
* Frequency(6)   78.7808
C    -8.216013    1.749240    0.004482   -0.000644    0.004681   -0.006322
C    -6.780905    2.180690    0.169516   -0.002327    0.015336   -0.019643
H    -8.389768    0.828307    0.715261   -0.155819    0.369667    1.126069
H    -8.402834    1.394488   -1.096879    0.271721   -1.159303   -0.114682
H    -8.900537    2.624176    0.311355   -0.094798    0.647606   -0.830742
O    -6.388682    3.077815    0.873797    0.009619   -0.064555    0.083786
O    -5.941297    1.406487   -0.553934   -0.008801    0.058992   -0.076382
H    -5.041309    1.726679   -0.364792    0.001312   -0.008175    0.011236
8
* Frequency(6)   78.7808
C    -8.216019    1.749284    0.004422   -0.000644    0.004681   -0.006322
C    -6.780927    2.180836    0.169329   -0.002327    0.015336   -0.019643
H    -8.391250    0.831824    0.725975   -0.155819    0.369667    1.126069
H    -8.400249    1.383458   -1.097970    0.271721   -1.159303   -0.114682
H    -8.901439    2.630337    0.303450   -0.094798    0.647606   -0.830742
O    -6.388590    3.077201    0.874594    0.009619   -0.064555    0.083786
O    -5.941381    1.407048   -0.554661   -0.008801    0.058992   -0.076382
H    -5.041296    1.726601   -0.364685    0.001312   -0.008175    0.011236
8
* Frequency(6)   78.7808
C    -8.216001    1.749152    0.004601   -0.000644    0.004681   -0.006322
C    -6.780862    2.180402    0.169885   -0.002327    0.015336   -0.019643
H    -8.386843    0.821368    0.694125   -0.155819    0.369667    1.126069
H    -8.407934    1.416247   -1.094727    0.271721   -1.159303   -0.114682
H    -8.898757    2.612021    0.326947   -0.094798    0.647606   -0.830742
O    -6.388862    3.079027    0.872225    0.009619   -0.064555    0.083786
O    -5.941132    1.405379   -0.552501   -0.008801    0.058992   -0.076382
H    -5.041333    1.726832   -0.365003    0.001312   -0.008175    0.011236
8
* Frequency(6)   78.7808
C    -8.215961    1.748857    0.004999   -0.000644    0.004681   -0.006322
C    -6.780715    2.179436    0.171123   -0.002327    0.015336   -0.019643
H    -8.377024    0.798073    0.623164   -0.155819    0.369667    1.126069
H    -8.425057    1.489303   -1.087500    0.271721   -1.159303   -0.114682
H    -8.892783    2.571210    0.379298   -0.094798    0.647606   -0.830742
O    -6.389468    3.083095    0.866945    0.009619   -0.064555    0.083786
O    -5.940578    1.401662   -0.547687   -0.008801    0.058992   -0.076382
H    -5.041416    1.727347   -0.365711    0.001312   -0.008175    0.011236
8
* Frequency(6)   78.7808
C    -8.215902    1.748431    0.005574   -0.000644    0.004681   -0.006322
C    -6.780503    2.178041    0.172909   -0.002327    0.015336   -0.019643
H    -8.362857    0.764462    0.520779   -0.155819    0.369667    1.126069
H    -8.449763    1.594709   -1.077073    0.271721   -1.159303   -0.114682
H    -8.884164    2.512329    0.454831   -0.094798    0.647606   -0.830742
O    -6.390343    3.088965    0.859327    0.009619   -0.064555    0.083786
O    -5.939778    1.396298   -0.540743   -0.008801    0.058992   -0.076382
H    -5.041535    1.728091   -0.366733    0.001312   -0.008175    0.011236
8
* Frequency(6)   78.7808
C    -8.215832    1.747921    0.006263   -0.000644    0.004681   -0.006322
C    -6.780250    2.176370    0.175049   -0.002327    0.015336   -0.019643
H    -8.345876    0.724178    0.398068   -0.155819    0.369667    1.126069
H    -8.479373    1.721043   -1.064575    0.271721   -1.159303   -0.114682
H    -8.873834    2.441757    0.545360   -0.094798    0.647606   -0.830742
O    -6.391391    3.095999    0.850196    0.009619   -0.064555    0.083786
O    -5.938818    1.389870   -0.532419   -0.008801    0.058992   -0.076382
H    -5.041678    1.728982   -0.367957    0.001312   -0.008175    0.011236
8
* Frequency(6)   78.7808
C    -8.215758    1.747382    0.006991   -0.000644    0.004681   -0.006322
C    -6.779982    2.174603    0.177313   -0.002327    0.015336   -0.019643
H    -8.327923    0.681587    0.268326   -0.155819    0.369667    1.126069
H    -8.510680    1.854613   -1.051362    0.271721   -1.159303   -0.114682
H    -8.862911    2.367142    0.641074   -0.094798    0.647606   -0.830742
O    -6.392499    3.103437    0.840543    0.009619   -0.064555    0.083786
O    -5.937805    1.383073   -0.523619   -0.008801    0.058992   -0.076382
H    -5.041830    1.729923   -0.369252    0.001312   -0.008175    0.011236
8
* Frequency(6)   78.7808
C    -8.215688    1.746872    0.007680   -0.000644    0.004681   -0.006322
C    -6.779728    2.172932    0.179453   -0.002327    0.015336   -0.019643
H    -8.310943    0.641303    0.145615   -0.155819    0.369667    1.126069
H    -8.540290    1.980947   -1.038865    0.271721   -1.159303   -0.114682
H    -8.852581    2.296570    0.731603   -0.094798    0.647606   -0.830742
O    -6.393547    3.110472    0.831413    0.009619   -0.064555    0.083786
O    -5.936845    1.376645   -0.515295   -0.008801    0.058992   -0.076382
H    -5.041973    1.730814   -0.370476    0.001312   -0.008175    0.011236
8
* Frequency(6)   78.7808
C    -8.215629    1.746446    0.008255   -0.000644    0.004681   -0.006322
C    -6.779517    2.171538    0.181239   -0.002327    0.015336   -0.019643
H    -8.296776    0.607692    0.043231   -0.155819    0.369667    1.126069
H    -8.564996    2.086352   -1.028438    0.271721   -1.159303   -0.114682
H    -8.843962    2.237689    0.807136   -0.094798    0.647606   -0.830742
O    -6.394422    3.116341    0.823795    0.009619   -0.064555    0.083786
O    -5.936045    1.371281   -0.508350   -0.008801    0.058992   -0.076382
H    -5.042092    1.731558   -0.371498    0.001312   -0.008175    0.011236
8
* Frequency(6)   78.7808
C    -8.215588    1.746151    0.008654   -0.000644    0.004681   -0.006322
C    -6.779370    2.170571    0.182477   -0.002327    0.015336   -0.019643
H    -8.286957    0.584397   -0.027731   -0.155819    0.369667    1.126069
H    -8.582119    2.159409   -1.021211    0.271721   -1.159303   -0.114682
H    -8.837988    2.196878    0.859487   -0.094798    0.647606   -0.830742
O    -6.395028    3.120410    0.818515    0.009619   -0.064555    0.083786
O    -5.935491    1.367563   -0.503537   -0.008801    0.058992   -0.076382
H    -5.042175    1.732073   -0.372206    0.001312   -0.008175    0.011236
8
* Frequency(6)   78.7808
C    -8.215570    1.746019    0.008832   -0.000644    0.004681   -0.006322
C    -6.779304    2.170137    0.183032   -0.002327    0.015336   -0.019643
H    -8.282549    0.573941   -0.059581   -0.155819    0.369667    1.126069
H    -8.589804    2.192198   -1.017967    0.271721   -1.159303   -0.114682
H    -8.835306    2.178561    0.882983   -0.094798    0.647606   -0.830742
O    -6.395300    3.122235    0.816145    0.009619   -0.064555    0.083786
O    -5.935242    1.365895   -0.501376   -0.008801    0.058992   -0.076382
H    -5.042212    1.732304   -0.372524    0.001312   -0.008175    0.011236
8
* Frequency(6)   78.7808
C    -8.215576    1.746063    0.008772   -0.000644    0.004681   -0.006322
C    -6.779326    2.170283    0.182846   -0.002327    0.015336   -0.019643
H    -8.284032    0.577458   -0.048867   -0.155819    0.369667    1.126069
H    -8.587219    2.181168   -1.019058    0.271721   -1.159303   -0.114682
H    -8.836208    2.184723    0.875079   -0.094798    0.647606   -0.830742
O    -6.395209    3.121621    0.816942    0.009619   -0.064555    0.083786
O    -5.935326    1.366456   -0.502103   -0.008801    0.058992   -0.076382
H    -5.042199    1.732226   -0.372417    0.001312   -0.008175    0.011236
8
* Frequency(6)   78.7808
C    -8.215606    1.746280    0.008480   -0.000644    0.004681   -0.006322
C    -6.779434    2.170993    0.181936   -0.002327    0.015336   -0.019643
H    -8.291243    0.594567    0.003250   -0.155819    0.369667    1.126069
H    -8.574643    2.127513   -1.024366    0.271721   -1.159303   -0.114682
H    -8.840596    2.214696    0.836631   -0.094798    0.647606   -0.830742
O    -6.394764    3.118633    0.820820    0.009619   -0.064555    0.083786
O    -5.935733    1.369186   -0.505638   -0.008801    0.058992   -0.076382
H    -5.042138    1.731848   -0.371897    0.001312   -0.008175    0.011236
8
* Frequency(6)   78.7808
C    -8.215656    1.746645    0.007986   -0.000644    0.004681   -0.006322
C    -6.779615    2.172190    0.180404   -0.002327    0.015336   -0.019643
H    -8.303403    0.623414    0.091121   -0.155819    0.369667    1.126069
H    -8.553440    2.037049   -1.033315    0.271721   -1.159303   -0.114682
H    -8.847993    2.265231    0.771805   -0.094798    0.647606   -0.830742
O    -6.394013    3.113596    0.827358    0.009619   -0.064555    0.083786
O    -5.936420    1.373790   -0.511599   -0.008801    0.058992   -0.076382
H    -5.042036    1.731210   -0.371020    0.001312   -0.008175    0.011236
8
* Frequency(6)   78.7808
C    -8.215722    1.747120    0.007346   -0.000644    0.004681   -0.006322
C    -6.779851    2.173744    0.178413   -0.002327    0.015336   -0.019643
H    -8.319192    0.660872    0.205225   -0.155819    0.369667    1.126069
H    -8.525906    1.919577   -1.044936    0.271721   -1.159303   -0.114682
H    -8.857599    2.330852    0.687626   -0.094798    0.647606   -0.830742
O    -6.393038    3.107055    0.835848    0.009619   -0.064555    0.083786
O    -5.937311    1.379767   -0.519338   -0.008801    0.058992   -0.076382
H    -5.041903    1.730382   -0.369881    0.001312   -0.008175    0.011236
8
* Frequency(6)   78.7808
C    -8.215795    1.747651    0.006627   -0.000644    0.004681   -0.006322
C    -6.780116    2.175487    0.176181   -0.002327    0.015336   -0.019643
H    -8.336900    0.702882    0.333197   -0.155819    0.369667    1.126069
H    -8.495026    1.787828   -1.057969    0.271721   -1.159303   -0.114682
H    -8.868373    2.404449    0.593217   -0.094798    0.647606   -0.830742
O    -6.391945    3.099718    0.845370    0.009619   -0.064555    0.083786
O    -5.938312    1.386471   -0.528019   -0.008801    0.058992   -0.076382
H    -5.041754    1.729452   -0.368604    0.001312   -0.008175    0.011236
