8
* (null), Energy   -1000.0000000
C    -8.215795    1.747651    0.006627   -0.091964    0.099873    0.087044
C    -6.780116    2.175487    0.176181    0.238495   -0.092159   -0.096898
H    -8.336900    0.702882    0.333197    0.125390   -0.045979   -0.267358
H    -8.495026    1.787828   -1.057969    0.152873   -0.259029   -0.000122
H    -8.868373    2.404449    0.593217   -0.606807   -0.236712   -0.111494
O    -6.391945    3.099718    0.845370   -0.065013   -0.154890   -0.112410
O    -5.938312    1.386471   -0.528019   -0.067185    0.262317    0.209329
H    -5.041754    1.729452   -0.368604    0.680775   -1.255283   -1.041912
8
* Frequency(14) 1215.4019
C    -8.226246    1.759001    0.016519   -0.091964    0.099873    0.087044
C    -6.753012    2.165013    0.165169    0.238495   -0.092159   -0.096898
H    -8.322650    0.697657    0.302813    0.125390   -0.045979   -0.267358
H    -8.477653    1.758391   -1.057983    0.152873   -0.259029   -0.000122
H    -8.937333    2.377548    0.580546   -0.606807   -0.236712   -0.111494
O    -6.399334    3.082116    0.832595   -0.065013   -0.154890   -0.112410
O    -5.945947    1.416282   -0.504230   -0.067185    0.262317    0.209329
H    -4.964387    1.586796   -0.487012    0.680775   -1.255283   -1.041912
8
* Frequency(14) 1215.4019
C    -8.235565    1.769122    0.025339   -0.091964    0.099873    0.087044
C    -6.728845    2.155675    0.155350    0.238495   -0.092159   -0.096898
H    -8.309944    0.692998    0.275722    0.125390   -0.045979   -0.267358
H    -8.462163    1.732143   -1.057995    0.152873   -0.259029   -0.000122
H    -8.998821    2.353562    0.569249   -0.606807   -0.236712   -0.111494
O    -6.405921    3.066421    0.821204   -0.065013   -0.154890   -0.112410
O    -5.952754    1.442863   -0.483018   -0.067185    0.262317    0.209329
H    -4.895405    1.459599   -0.592589    0.680775   -1.255283   -1.041912
8
* Frequency(14) 1215.4019
C    -8.242741    1.776915    0.032132   -0.091964    0.099873    0.087044
C    -6.710235    2.148483    0.147789    0.238495   -0.092159   -0.096898
H    -8.300160    0.689410    0.254859    0.125390   -0.045979   -0.267358
H    -8.450233    1.711930   -1.058004    0.152873   -0.259029   -0.000122
H    -9.046172    2.335091    0.560548   -0.606807   -0.236712   -0.111494
O    -6.410995    3.054334    0.812433   -0.065013   -0.154890   -0.112410
O    -5.957997    1.463332   -0.466684   -0.067185    0.262317    0.209329
H    -4.842281    1.361644   -0.673893    0.680775   -1.255283   -1.041912
8
* Frequency(14) 1215.4019
C    -8.246997    1.781537    0.036160   -0.091964    0.099873    0.087044
C    -6.699197    2.144218    0.143304    0.238495   -0.092159   -0.096898
H    -8.294356    0.687282    0.242485    0.125390   -0.045979   -0.267358
H    -8.443158    1.699942   -1.058010    0.152873   -0.259029   -0.000122
H    -9.074256    2.324135    0.555388   -0.606807   -0.236712   -0.111494
O    -6.414003    3.047166    0.807230   -0.065013   -0.154890   -0.112410
O    -5.961107    1.475473   -0.456995   -0.067185    0.262317    0.209329
H    -4.810774    1.303547   -0.722115    0.680775   -1.255283   -1.041912
8
* Frequency(14) 1215.4019
C    -8.247872    1.782488    0.036989   -0.091964    0.099873    0.087044
C    -6.696927    2.143341    0.142382    0.238495   -0.092159   -0.096898
H    -8.293163    0.686845    0.239941    0.125390   -0.045979   -0.267358
H    -8.441704    1.697478   -1.058011    0.152873   -0.259029   -0.000122
H    -9.080030    2.321883    0.554327   -0.606807   -0.236712   -0.111494
O    -6.414622    3.045692    0.806161   -0.065013   -0.154890   -0.112410
O    -5.961746    1.477969   -0.455004   -0.067185    0.262317    0.209329
H    -4.804297    1.291604   -0.732028    0.680775   -1.255283   -1.041912
8
* Frequency(14) 1215.4019
C    -8.245271    1.779663    0.034527   -0.091964    0.099873    0.087044
C    -6.703673    2.145948    0.145123    0.238495   -0.092159   -0.096898
H    -8.296710    0.688145    0.247503    0.125390   -0.045979   -0.267358
H    -8.446027    1.704804   -1.058008    0.152873   -0.259029   -0.000122
H    -9.062867    2.328578    0.557481   -0.606807   -0.236712   -0.111494
O    -6.412783    3.050073    0.809340   -0.065013   -0.154890   -0.112410
O    -5.959846    1.470549   -0.460924   -0.067185    0.262317    0.209329
H    -4.823552    1.327108   -0.702559    0.680775   -1.255283   -1.041912
8
* Frequency(14) 1215.4019
C    -8.239476    1.773369    0.029041   -0.091964    0.099873    0.087044
C    -6.718702    2.151755    0.151229    0.238495   -0.092159   -0.096898
H    -8.304611    0.691043    0.264352    0.125390   -0.045979   -0.267358
H    -8.455661    1.721127   -1.058000    0.152873   -0.259029   -0.000122
H    -9.024627    2.343495    0.564507   -0.606807   -0.236712   -0.111494
O    -6.408686    3.059834    0.816424   -0.065013   -0.154890   -0.112410
O    -5.955612    1.454019   -0.474116   -0.067185    0.262317    0.209329
H    -4.866452    1.406213   -0.636900    0.680775   -1.255283   -1.041912
8
* Frequency(14) 1215.4019
C    -8.231114    1.764288    0.021127   -0.091964    0.099873    0.087044
C    -6.740387    2.160135    0.160039    0.238495   -0.092159   -0.096898
H    -8.316012    0.695223    0.288660    0.125390   -0.045979   -0.267358
H    -8.469561    1.744679   -1.057989    0.152873   -0.259029   -0.000122
H    -8.969455    2.365018    0.574644   -0.606807   -0.236712   -0.111494
O    -6.402775    3.073916    0.826644   -0.065013   -0.154890   -0.112410
O    -5.949503    1.430169   -0.493148   -0.067185    0.262317    0.209329
H    -4.928349    1.520345   -0.542168    0.680775   -1.255283   -1.041912
8
* Frequency(14) 1215.4019
C    -8.221093    1.753405    0.011642   -0.091964    0.099873    0.087044
C    -6.766376    2.170177    0.170599    0.238495   -0.092159   -0.096898
H    -8.329676    0.700234    0.317795    0.125390   -0.045979   -0.267358
H    -8.486220    1.772906   -1.057976    0.152873   -0.259029   -0.000122
H    -8.903330    2.390813    0.586794   -0.606807   -0.236712   -0.111494
O    -6.395690    3.090795    0.838894   -0.065013   -0.154890   -0.112410
O    -5.942182    1.401583   -0.515960   -0.067185    0.262317    0.209329
H    -5.002536    1.657138   -0.428627    0.680775   -1.255283   -1.041912
8
* Frequency(14) 1215.4019
C    -8.210497    1.741898    0.001613   -0.091964    0.099873    0.087044
C    -6.793855    2.180796    0.181763    0.238495   -0.092159   -0.096898
H    -8.344123    0.705531    0.348599    0.125390   -0.045979   -0.267358
H    -8.503833    1.802750   -1.057962    0.152873   -0.259029   -0.000122
H    -8.833416    2.418086    0.599640   -0.606807   -0.236712   -0.111494
O    -6.388200    3.108641    0.851845   -0.065013   -0.154890   -0.112410
O    -5.934441    1.371360   -0.540078   -0.067185    0.262317    0.209329
H    -5.080972    1.801767   -0.308582    0.680775   -1.255283   -1.041912
8
* Frequency(14) 1215.4019
C    -8.200475    1.731014   -0.007873   -0.091964    0.099873    0.087044
C    -6.819845    2.190838    0.192322    0.238495   -0.092159   -0.096898
H    -8.357788    0.710542    0.377734    0.125390   -0.045979   -0.267358
H    -8.520492    1.830977   -1.057948    0.152873   -0.259029   -0.000122
H    -8.767290    2.443881    0.611790   -0.606807   -0.236712   -0.111494
O    -6.381115    3.125520    0.864095   -0.065013   -0.154890   -0.112410
O    -5.927120    1.342774   -0.562889   -0.067185    0.262317    0.209329
H    -5.155158    1.938560   -0.195041    0.680775   -1.255283   -1.041912
8
* Frequency(14) 1215.4019
C    -8.192114    1.721934   -0.015787   -0.091964    0.099873    0.087044
C    -6.841529    2.199218    0.201133    0.238495   -0.092159   -0.096898
H    -8.369188    0.714722    0.402043    0.125390   -0.045979   -0.267358
H    -8.534392    1.854529   -1.057937    0.152873   -0.259029   -0.000122
H    -8.712118    2.465404    0.621927   -0.606807   -0.236712   -0.111494
O    -6.375204    3.139603    0.874316   -0.065013   -0.154890   -0.112410
O    -5.921011    1.318924   -0.581922   -0.067185    0.262317    0.209329
H    -5.217056    2.052692   -0.100309    0.680775   -1.255283   -1.041912
8
* Frequency(14) 1215.4019
C    -8.186318    1.715640   -0.021272   -0.091964    0.099873    0.087044
C    -6.856558    2.205025    0.207239    0.238495   -0.092159   -0.096898
H    -8.377090    0.717620    0.418891    0.125390   -0.045979   -0.267358
H    -8.544025    1.870852   -1.057930    0.152873   -0.259029   -0.000122
H    -8.673878    2.480320    0.628953   -0.606807   -0.236712   -0.111494
O    -6.371107    3.149364    0.881399   -0.065013   -0.154890   -0.112410
O    -5.916777    1.302393   -0.595113   -0.067185    0.262317    0.209329
H    -5.259956    2.131797   -0.034650    0.680775   -1.255283   -1.041912
8
* Frequency(14) 1215.4019
C    -8.183717    1.712815   -0.023734   -0.091964    0.099873    0.087044
C    -6.863304    2.207632    0.209979    0.238495   -0.092159   -0.096898
H    -8.380637    0.718920    0.426453    0.125390   -0.045979   -0.267358
H    -8.548349    1.878178   -1.057926    0.152873   -0.259029   -0.000122
H    -8.656715    2.487016    0.632106   -0.606807   -0.236712   -0.111494
O    -6.369268    3.153745    0.884579   -0.065013   -0.154890   -0.112410
O    -5.914877    1.294974   -0.601034   -0.067185    0.262317    0.209329
H    -5.279211    2.167301   -0.005181    0.680775   -1.255283   -1.041912
8
* Frequency(14) 1215.4019
C    -8.184592    1.713766   -0.022906   -0.091964    0.099873    0.087044
C    -6.861035    2.206755    0.209058    0.238495   -0.092159   -0.096898
H    -8.379443    0.718483    0.423909    0.125390   -0.045979   -0.267358
H    -8.546895    1.875714   -1.057927    0.152873   -0.259029   -0.000122
H    -8.662489    2.484763    0.631046   -0.606807   -0.236712   -0.111494
O    -6.369887    3.152271    0.883509   -0.065013   -0.154890   -0.112410
O    -5.915516    1.297470   -0.599042   -0.067185    0.262317    0.209329
H    -5.272734    2.155358   -0.015094    0.680775   -1.255283   -1.041912
8
* Frequency(14) 1215.4019
C    -8.188848    1.718388   -0.018877   -0.091964    0.099873    0.087044
C    -6.849997    2.202490    0.204573    0.238495   -0.092159   -0.096898
H    -8.373640    0.716355    0.411535    0.125390   -0.045979   -0.267358
H    -8.539819    1.863725   -1.057933    0.152873   -0.259029   -0.000122
H    -8.690573    2.473808    0.625886   -0.606807   -0.236712   -0.111494
O    -6.372896    3.145102    0.878307   -0.065013   -0.154890   -0.112410
O    -5.918626    1.309610   -0.589354   -0.067185    0.262317    0.209329
H    -5.241227    2.097261   -0.063316    0.680775   -1.255283   -1.041912
8
* Frequency(14) 1215.4019
C    -8.196025    1.726181   -0.012085   -0.091964    0.099873    0.087044
C    -6.831386    2.195298    0.197012    0.238495   -0.092159   -0.096898
H    -8.363856    0.712767    0.390672    0.125390   -0.045979   -0.267358
H    -8.527890    1.843512   -1.057943    0.152873   -0.259029   -0.000122
H    -8.737924    2.455336    0.617185   -0.606807   -0.236712   -0.111494
O    -6.377969    3.133016    0.869535   -0.065013   -0.154890   -0.112410
O    -5.923869    1.330080   -0.573019   -0.067185    0.262317    0.209329
H    -5.188103    1.999306   -0.144620    0.680775   -1.255283   -1.041912
8
* Frequency(14) 1215.4019
C    -8.205344    1.736301   -0.003265   -0.091964    0.099873    0.087044
C    -6.807219    2.185960    0.187193    0.238495   -0.092159   -0.096898
H    -8.351150    0.708108    0.363581    0.125390   -0.045979   -0.267358
H    -8.512400    1.817265   -1.057955    0.152873   -0.259029   -0.000122
H    -8.799412    2.431351    0.605888   -0.606807   -0.236712   -0.111494
O    -6.384557    3.117321    0.858144   -0.065013   -0.154890   -0.112410
O    -5.930676    1.356660   -0.551808   -0.067185    0.262317    0.209329
H    -5.119120    1.872109   -0.250197    0.680775   -1.255283   -1.041912
8
* Frequency(14) 1215.4019
C    -8.215795    1.747651    0.006627   -0.091964    0.099873    0.087044
C    -6.780116    2.175487    0.176181    0.238495   -0.092159   -0.096898
H    -8.336900    0.702882    0.333197    0.125390   -0.045979   -0.267358
H    -8.495026    1.787828   -1.057969    0.152873   -0.259029   -0.000122
H    -8.868373    2.404449    0.593217   -0.606807   -0.236712   -0.111494
O    -6.391945    3.099718    0.845370   -0.065013   -0.154890   -0.112410
O    -5.938312    1.386471   -0.528019   -0.067185    0.262317    0.209329
H    -5.041754    1.729452   -0.368604    0.680775   -1.255283   -1.041912
