8
* (null), Energy   -1000.0000000
C    -8.215795    1.747651    0.006627    0.097299    0.081697    0.052030
C    -6.780116    2.175487    0.176181   -0.559080   -1.085693   -0.774377
H    -8.336900    0.702882    0.333197    0.180890    0.096393    0.175288
H    -8.495026    1.787828   -1.057969    0.161610    0.211362    0.025994
H    -8.868373    2.404449    0.593217   -0.343539   -0.259162   -0.162250
O    -6.391945    3.099718    0.845370    0.305453    0.688455    0.496623
O    -5.938312    1.386471   -0.528019    0.019767    0.099236    0.074263
H    -5.041754    1.729452   -0.368604    0.341572   -0.587543   -0.492889
8
* Frequency(19) 1869.1719
C    -8.204737    1.756936    0.012540    0.097299    0.081697    0.052030
C    -6.843652    2.052103    0.088177   -0.559080   -1.085693   -0.774377
H    -8.316343    0.713837    0.353118    0.180890    0.096393    0.175288
H    -8.476660    1.811848   -1.055015    0.161610    0.211362    0.025994
H    -8.907414    2.374997    0.574778   -0.343539   -0.259162   -0.162250
O    -6.357232    3.177958    0.901808    0.305453    0.688455    0.496623
O    -5.936065    1.397749   -0.519579    0.019767    0.099236    0.074263
H    -5.002936    1.662681   -0.424619    0.341572   -0.587543   -0.492889
8
* Frequency(19) 1869.1719
C    -8.194878    1.765214    0.017812    0.097299    0.081697    0.052030
C    -6.900304    1.942090    0.009710   -0.559080   -1.085693   -0.774377
H    -8.298013    0.723604    0.370880    0.180890    0.096393    0.175288
H    -8.460284    1.833265   -1.052381    0.161610    0.211362    0.025994
H    -8.942225    2.348736    0.558337   -0.343539   -0.259162   -0.162250
O    -6.326281    3.247719    0.952131    0.305453    0.688455    0.496623
O    -5.934062    1.407805   -0.512054    0.019767    0.099236    0.074263
H    -4.968325    1.603146   -0.474563    0.341572   -0.587543   -0.492889
8
* Frequency(19) 1869.1719
C    -8.187285    1.771589    0.021872    0.097299    0.081697    0.052030
C    -6.943931    1.857369   -0.050718   -0.559080   -1.085693   -0.774377
H    -8.283898    0.731126    0.384558    0.180890    0.096393    0.175288
H    -8.447673    1.849759   -1.050352    0.161610    0.211362    0.025994
H    -8.969032    2.328513    0.545676   -0.343539   -0.259162   -0.162250
O    -6.302445    3.301441    0.990884    0.305453    0.688455    0.496623
O    -5.932520    1.415548   -0.506259    0.019767    0.099236    0.074263
H    -4.941670    1.557297   -0.513025    0.341572   -0.587543   -0.492889
8
* Frequency(19) 1869.1719
C    -8.182782    1.775371    0.024280    0.097299    0.081697    0.052030
C    -6.969806    1.807122   -0.086557   -0.559080   -1.085693   -0.774377
H    -8.275526    0.735587    0.392671    0.180890    0.096393    0.175288
H    -8.440194    1.859541   -1.049149    0.161610    0.211362    0.025994
H    -8.984932    2.316518    0.538167   -0.343539   -0.259162   -0.162250
O    -6.288308    3.333304    1.013869    0.305453    0.688455    0.496623
O    -5.931605    1.420141   -0.502822    0.019767    0.099236    0.074263
H    -4.925862    1.530105   -0.535837    0.341572   -0.587543   -0.492889
8
* Frequency(19) 1869.1719
C    -8.181857    1.776148    0.024775    0.097299    0.081697    0.052030
C    -6.975125    1.796792   -0.093925   -0.559080   -1.085693   -0.774377
H    -8.273805    0.736505    0.394338    0.180890    0.096393    0.175288
H    -8.438656    1.861552   -1.048902    0.161610    0.211362    0.025994
H    -8.988201    2.314053    0.536623   -0.343539   -0.259162   -0.162250
O    -6.285402    3.339855    1.018594    0.305453    0.688455    0.496623
O    -5.931417    1.421085   -0.502116    0.019767    0.099236    0.074263
H    -4.922612    1.524515   -0.540526    0.341572   -0.587543   -0.492889
8
* Frequency(19) 1869.1719
C    -8.184609    1.773837    0.023304    0.097299    0.081697    0.052030
C    -6.959312    1.827499   -0.072023   -0.559080   -1.085693   -0.774377
H    -8.278921    0.733778    0.389380    0.180890    0.096393    0.175288
H    -8.443227    1.855574   -1.049637    0.161610    0.211362    0.025994
H    -8.978484    2.321383    0.541212   -0.343539   -0.259162   -0.162250
O    -6.294041    3.320382    1.004548    0.305453    0.688455    0.496623
O    -5.931976    1.418278   -0.504216    0.019767    0.099236    0.074263
H    -4.932273    1.541133   -0.526585    0.341572   -0.587543   -0.492889
8
* Frequency(19) 1869.1719
C    -8.190740    1.768689    0.020025    0.097299    0.081697    0.052030
C    -6.924081    1.895917   -0.023224   -0.559080   -1.085693   -0.774377
H    -8.290320    0.727704    0.378334    0.180890    0.096393    0.175288
H    -8.453411    1.842254   -1.051275    0.161610    0.211362    0.025994
H    -8.956835    2.337714    0.551437   -0.343539   -0.259162   -0.162250
O    -6.313290    3.276998    0.973252    0.305453    0.688455    0.496623
O    -5.933221    1.412025   -0.508896    0.019767    0.099236    0.074263
H    -4.953798    1.578158   -0.495525    0.341572   -0.587543   -0.492889
8
* Frequency(19) 1869.1719
C    -8.199587    1.761261    0.015294    0.097299    0.081697    0.052030
C    -6.873248    1.994630    0.047184   -0.559080   -1.085693   -0.774377
H    -8.306767    0.718940    0.362397    0.180890    0.096393    0.175288
H    -8.468105    1.823037   -1.053639    0.161610    0.211362    0.025994
H    -8.925600    2.361278    0.566189   -0.343539   -0.259162   -0.162250
O    -6.341062    3.214402    0.928098    0.305453    0.688455    0.496623
O    -5.935019    1.403002   -0.515648    0.019767    0.099236    0.074263
H    -4.984854    1.631579   -0.450711    0.341572   -0.587543   -0.492889
8
* Frequency(19) 1869.1719
C    -8.210190    1.752358    0.009625    0.097299    0.081697    0.052030
C    -6.812323    2.112942    0.131571   -0.559080   -1.085693   -0.774377
H    -8.326479    0.708435    0.343295    0.180890    0.096393    0.175288
H    -8.485716    1.800004   -1.056471    0.161610    0.211362    0.025994
H    -8.888163    2.389520    0.583870   -0.343539   -0.259162   -0.162250
O    -6.374349    3.139379    0.873979    0.305453    0.688455    0.496623
O    -5.937173    1.392188   -0.523741    0.019767    0.099236    0.074263
H    -5.022077    1.695605   -0.396999    0.341572   -0.587543   -0.492889
8
* Frequency(19) 1869.1719
C    -8.221400    1.742945    0.003630    0.097299    0.081697    0.052030
C    -6.747908    2.238031    0.220791   -0.559080   -1.085693   -0.774377
H    -8.347321    0.697329    0.323099    0.180890    0.096393    0.175288
H    -8.504336    1.775652   -1.059466    0.161610    0.211362    0.025994
H    -8.848582    2.419379    0.602564   -0.343539   -0.259162   -0.162250
O    -6.409542    3.060058    0.816760    0.305453    0.688455    0.496623
O    -5.939450    1.380755   -0.532297    0.019767    0.099236    0.074263
H    -5.061431    1.763300   -0.340210    0.341572   -0.587543   -0.492889
8
* Frequency(19) 1869.1719
C    -8.232003    1.734042   -0.002040    0.097299    0.081697    0.052030
C    -6.686983    2.356343    0.305178   -0.559080   -1.085693   -0.774377
H    -8.367033    0.686825    0.303997    0.180890    0.096393    0.175288
H    -8.521948    1.752619   -1.062299    0.161610    0.211362    0.025994
H    -8.811145    2.447621    0.620245   -0.343539   -0.259162   -0.162250
O    -6.442828    2.985034    0.762641    0.305453    0.688455    0.496623
O    -5.941604    1.369941   -0.540390    0.019767    0.099236    0.074263
H    -5.098654    1.827326   -0.286498    0.341572   -0.587543   -0.492889
8
* Frequency(19) 1869.1719
C    -8.240850    1.726614   -0.006771    0.097299    0.081697    0.052030
C    -6.636151    2.455056    0.375585   -0.559080   -1.085693   -0.774377
H    -8.383480    0.678061    0.288060    0.180890    0.096393    0.175288
H    -8.536641    1.733402   -1.064662    0.161610    0.211362    0.025994
H    -8.779910    2.471184    0.634997   -0.343539   -0.259162   -0.162250
O    -6.470600    2.922439    0.717488    0.305453    0.688455    0.496623
O    -5.943402    1.360918   -0.547142    0.019767    0.099236    0.074263
H    -5.129710    1.880747   -0.241684    0.341572   -0.587543   -0.492889
8
* Frequency(19) 1869.1719
C    -8.246981    1.721466   -0.010049    0.097299    0.081697    0.052030
C    -6.600919    2.523474    0.424385   -0.559080   -1.085693   -0.774377
H    -8.394879    0.671987    0.277014    0.180890    0.096393    0.175288
H    -8.546826    1.720082   -1.066300    0.161610    0.211362    0.025994
H    -8.758261    2.487516    0.645222   -0.343539   -0.259162   -0.162250
O    -6.489849    2.879054    0.686192    0.305453    0.688455    0.496623
O    -5.944647    1.354664   -0.551821    0.019767    0.099236    0.074263
H    -5.151235    1.917772   -0.210623    0.341572   -0.587543   -0.492889
8
* Frequency(19) 1869.1719
C    -8.249733    1.719155   -0.011521    0.097299    0.081697    0.052030
C    -6.585106    2.554181    0.446287   -0.559080   -1.085693   -0.774377
H    -8.399995    0.669260    0.272056    0.180890    0.096393    0.175288
H    -8.551397    1.714104   -1.067035    0.161610    0.211362    0.025994
H    -8.748544    2.494846    0.649811   -0.343539   -0.259162   -0.162250
O    -6.498489    2.859582    0.672145    0.305453    0.688455    0.496623
O    -5.945206    1.351858   -0.553922    0.019767    0.099236    0.074263
H    -5.160896    1.934390   -0.196683    0.341572   -0.587543   -0.492889
8
* Frequency(19) 1869.1719
C    -8.248807    1.719932   -0.011026    0.097299    0.081697    0.052030
C    -6.590425    2.543852    0.438919   -0.559080   -1.085693   -0.774377
H    -8.398274    0.670177    0.273724    0.180890    0.096393    0.175288
H    -8.549859    1.716115   -1.066788    0.161610    0.211362    0.025994
H    -8.751813    2.492380    0.648267   -0.343539   -0.259162   -0.162250
O    -6.495582    2.866132    0.676870    0.305453    0.688455    0.496623
O    -5.945018    1.352802   -0.553215    0.019767    0.099236    0.074263
H    -5.157646    1.928800   -0.201372    0.341572   -0.587543   -0.492889
8
* Frequency(19) 1869.1719
C    -8.244304    1.723713   -0.008618    0.097299    0.081697    0.052030
C    -6.616301    2.493604    0.403080   -0.559080   -1.085693   -0.774377
H    -8.389902    0.674639    0.281836    0.180890    0.096393    0.175288
H    -8.542379    1.725897   -1.065585    0.161610    0.211362    0.025994
H    -8.767713    2.480386    0.640758   -0.343539   -0.259162   -0.162250
O    -6.481445    2.897995    0.699855    0.305453    0.688455    0.496623
O    -5.944103    1.357395   -0.549778    0.019767    0.099236    0.074263
H    -5.141838    1.901607   -0.224184    0.341572   -0.587543   -0.492889
8
* Frequency(19) 1869.1719
C    -8.236712    1.730089   -0.004558    0.097299    0.081697    0.052030
C    -6.659928    2.408883    0.342652   -0.559080   -1.085693   -0.774377
H    -8.375787    0.682160    0.295515    0.180890    0.096393    0.175288
H    -8.529768    1.742391   -1.063557    0.161610    0.211362    0.025994
H    -8.794520    2.460163    0.628097   -0.343539   -0.259162   -0.162250
O    -6.457610    2.951718    0.738608    0.305453    0.688455    0.496623
O    -5.942561    1.365138   -0.543983    0.019767    0.099236    0.074263
H    -5.115183    1.855759   -0.262646    0.341572   -0.587543   -0.492889
8
* Frequency(19) 1869.1719
C    -8.226852    1.738367    0.000714    0.097299    0.081697    0.052030
C    -6.716579    2.298870    0.264185   -0.559080   -1.085693   -0.774377
H    -8.357457    0.691928    0.313277    0.180890    0.096393    0.175288
H    -8.513393    1.763808   -1.060923    0.161610    0.211362    0.025994
H    -8.829331    2.433902    0.611656   -0.343539   -0.259162   -0.162250
O    -6.426658    3.021479    0.788931    0.305453    0.688455    0.496623
O    -5.940558    1.375194   -0.536458    0.019767    0.099236    0.074263
H    -5.080572    1.796224   -0.312590    0.341572   -0.587543   -0.492889
8
* Frequency(19) 1869.1719
C    -8.215795    1.747651    0.006627    0.097299    0.081697    0.052030
C    -6.780116    2.175487    0.176181   -0.559080   -1.085693   -0.774377
H    -8.336900    0.702882    0.333197    0.180890    0.096393    0.175288
H    -8.495026    1.787828   -1.057969    0.161610    0.211362    0.025994
H    -8.868373    2.404449    0.593217   -0.343539   -0.259162   -0.162250
O    -6.391945    3.099718    0.845370    0.305453    0.688455    0.496623
O    -5.938312    1.386471   -0.528019    0.019767    0.099236    0.074263
H    -5.041754    1.729452   -0.368604    0.341572   -0.587543   -0.492889
