8
* (null), Energy   -1000.0000000
C    -8.215795    1.747651    0.006627   -0.001403   -0.001061   -0.000663
C    -6.780116    2.175487    0.176181    0.006211    0.000286   -0.000480
H    -8.336900    0.702882    0.333197   -0.001264    0.004412   -0.000475
H    -8.495026    1.787828   -1.057969   -0.000649    0.000498    0.004579
H    -8.868373    2.404449    0.593217   -0.000015    0.001333    0.001098
O    -6.391945    3.099718    0.845370   -0.000441    0.001291    0.001032
O    -5.938312    1.386471   -0.528019    0.114039    0.040874    0.018122
H    -5.041754    1.729452   -0.368604   -1.858394   -0.666250   -0.295615
8
* Frequency(23) 3742.4935
C    -8.215954    1.747531    0.006552   -0.001403   -0.001061   -0.000663
C    -6.779410    2.175519    0.176126    0.006211    0.000286   -0.000480
H    -8.337044    0.703384    0.333143   -0.001264    0.004412   -0.000475
H    -8.495100    1.787885   -1.057448   -0.000649    0.000498    0.004579
H    -8.868374    2.404601    0.593342   -0.000015    0.001333    0.001098
O    -6.391995    3.099865    0.845487   -0.000441    0.001291    0.001032
O    -5.925352    1.391117   -0.525959    0.114039    0.040874    0.018122
H    -5.252951    1.653737   -0.402200   -1.858394   -0.666250   -0.295615
8
* Frequency(23) 3742.4935
C    -8.216096    1.747423    0.006485   -0.001403   -0.001061   -0.000663
C    -6.778781    2.175548    0.176078    0.006211    0.000286   -0.000480
H    -8.337172    0.703831    0.333095   -0.001264    0.004412   -0.000475
H    -8.495166    1.787935   -1.056984   -0.000649    0.000498    0.004579
H    -8.868376    2.404736    0.593453   -0.000015    0.001333    0.001098
O    -6.392040    3.099996    0.845592   -0.000441    0.001291    0.001032
O    -5.913796    1.395258   -0.524123    0.114039    0.040874    0.018122
H    -5.441261    1.586226   -0.432154   -1.858394   -0.666250   -0.295615
8
* Frequency(23) 3742.4935
C    -8.216206    1.747340    0.006433   -0.001403   -0.001061   -0.000663
C    -6.778296    2.175570    0.176040    0.006211    0.000286   -0.000480
H    -8.337270    0.704175    0.333058   -0.001264    0.004412   -0.000475
H    -8.495217    1.787974   -1.056627   -0.000649    0.000498    0.004579
H    -8.868377    2.404840    0.593539   -0.000015    0.001333    0.001098
O    -6.392075    3.100097    0.845672   -0.000441    0.001291    0.001032
O    -5.904897    1.398448   -0.522709    0.114039    0.040874    0.018122
H    -5.586279    1.534236   -0.455222   -1.858394   -0.666250   -0.295615
8
* Frequency(23) 3742.4935
C    -8.216271    1.747291    0.006402   -0.001403   -0.001061   -0.000663
C    -6.778008    2.175583    0.176018    0.006211    0.000286   -0.000480
H    -8.337329    0.704379    0.333036   -0.001264    0.004412   -0.000475
H    -8.495247    1.787997   -1.056415   -0.000649    0.000498    0.004579
H    -8.868378    2.404902    0.593590   -0.000015    0.001333    0.001098
O    -6.392095    3.100156    0.845720   -0.000441    0.001291    0.001032
O    -5.899619    1.400340   -0.521870    0.114039    0.040874    0.018122
H    -5.672289    1.503401   -0.468904   -1.858394   -0.666250   -0.295615
8
* Frequency(23) 3742.4935
C    -8.216284    1.747281    0.006396   -0.001403   -0.001061   -0.000663
C    -6.777949    2.175586    0.176014    0.006211    0.000286   -0.000480
H    -8.337341    0.704421    0.333031   -0.001264    0.004412   -0.000475
H    -8.495253    1.788002   -1.056372   -0.000649    0.000498    0.004579
H    -8.868378    2.404914    0.593600   -0.000015    0.001333    0.001098
O    -6.392099    3.100169    0.845730   -0.000441    0.001291    0.001032
O    -5.898534    1.400729   -0.521698    0.114039    0.040874    0.018122
H    -5.689970    1.497062   -0.471716   -1.858394   -0.666250   -0.295615
8
* Frequency(23) 3742.4935
C    -8.216244    1.747311    0.006415   -0.001403   -0.001061   -0.000663
C    -6.778125    2.175578    0.176027    0.006211    0.000286   -0.000480
H    -8.337305    0.704296    0.333045   -0.001264    0.004412   -0.000475
H    -8.495235    1.787988   -1.056501   -0.000649    0.000498    0.004579
H    -8.868377    2.404877    0.593569   -0.000015    0.001333    0.001098
O    -6.392087    3.100132    0.845701   -0.000441    0.001291    0.001032
O    -5.901759    1.399572   -0.522210    0.114039    0.040874    0.018122
H    -5.637408    1.515906   -0.463355   -1.858394   -0.666250   -0.295615
8
* Frequency(23) 3742.4935
C    -8.216156    1.747378    0.006457   -0.001403   -0.001061   -0.000663
C    -6.778516    2.175560    0.176057    0.006211    0.000286   -0.000480
H    -8.337225    0.704018    0.333075   -0.001264    0.004412   -0.000475
H    -8.495194    1.787956   -1.056790   -0.000649    0.000498    0.004579
H    -8.868376    2.404793    0.593500   -0.000015    0.001333    0.001098
O    -6.392059    3.100051    0.845635   -0.000441    0.001291    0.001032
O    -5.908946    1.396997   -0.523352    0.114039    0.040874    0.018122
H    -5.520297    1.557891   -0.444726   -1.858394   -0.666250   -0.295615
8
* Frequency(23) 3742.4935
C    -8.216029    1.747475    0.006517   -0.001403   -0.001061   -0.000663
C    -6.779081    2.175534    0.176101    0.006211    0.000286   -0.000480
H    -8.337110    0.703617    0.333118   -0.001264    0.004412   -0.000475
H    -8.495135    1.787911   -1.057206   -0.000649    0.000498    0.004579
H    -8.868375    2.404672    0.593400   -0.000015    0.001333    0.001098
O    -6.392019    3.099933    0.845542   -0.000441    0.001291    0.001032
O    -5.919315    1.393280   -0.525000    0.114039    0.040874    0.018122
H    -5.351328    1.618468   -0.417848   -1.858394   -0.666250   -0.295615
8
* Frequency(23) 3742.4935
C    -8.215876    1.747590    0.006589   -0.001403   -0.001061   -0.000663
C    -6.779758    2.175503    0.176153    0.006211    0.000286   -0.000480
H    -8.336973    0.703137    0.333170   -0.001264    0.004412   -0.000475
H    -8.495064    1.787857   -1.057705   -0.000649    0.000498    0.004579
H    -8.868373    2.404526    0.593280   -0.000015    0.001333    0.001098
O    -6.391971    3.099793    0.845429   -0.000441    0.001291    0.001032
O    -5.931742    1.388826   -0.526975    0.114039    0.040874    0.018122
H    -5.148813    1.691071   -0.385634   -1.858394   -0.666250   -0.295615
8
* Frequency(23) 3742.4935
C    -8.215714    1.747713    0.006665   -0.001403   -0.001061   -0.000663
C    -6.780474    2.175470    0.176209    0.006211    0.000286   -0.000480
H    -8.336827    0.702628    0.333225   -0.001264    0.004412   -0.000475
H    -8.494989    1.787799   -1.058233   -0.000649    0.000498    0.004579
H    -8.868372    2.404373    0.593154   -0.000015    0.001333    0.001098
O    -6.391920    3.099644    0.845310   -0.000441    0.001291    0.001032
O    -5.944881    1.384117   -0.529063    0.114039    0.040874    0.018122
H    -4.934695    1.767834   -0.351575   -1.858394   -0.666250   -0.295615
8
* Frequency(23) 3742.4935
C    -8.215561    1.747828    0.006738   -0.001403   -0.001061   -0.000663
C    -6.781150    2.175439    0.176261    0.006211    0.000286   -0.000480
H    -8.336689    0.702148    0.333276   -0.001264    0.004412   -0.000475
H    -8.494918    1.787745   -1.058732   -0.000649    0.000498    0.004579
H    -8.868370    2.404227    0.593034   -0.000015    0.001333    0.001098
O    -6.391872    3.099503    0.845198   -0.000441    0.001291    0.001032
O    -5.957308    1.379663   -0.531038    0.114039    0.040874    0.018122
H    -4.732180    1.840437   -0.319360   -1.858394   -0.666250   -0.295615
8
* Frequency(23) 3742.4935
C    -8.215434    1.747925    0.006798   -0.001403   -0.001061   -0.000663
C    -6.781715    2.175413    0.176304    0.006211    0.000286   -0.000480
H    -8.336574    0.701746    0.333320   -0.001264    0.004412   -0.000475
H    -8.494859    1.787700   -1.059148   -0.000649    0.000498    0.004579
H    -8.868369    2.404106    0.592934   -0.000015    0.001333    0.001098
O    -6.391831    3.099386    0.845104   -0.000441    0.001291    0.001032
O    -5.967677    1.375946   -0.532685    0.114039    0.040874    0.018122
H    -4.563211    1.901014   -0.292483   -1.858394   -0.666250   -0.295615
8
* Frequency(23) 3742.4935
C    -8.215345    1.747992    0.006840   -0.001403   -0.001061   -0.000663
C    -6.782107    2.175395    0.176335    0.006211    0.000286   -0.000480
H    -8.336495    0.701468    0.333350   -0.001264    0.004412   -0.000475
H    -8.494818    1.787668   -1.059436   -0.000649    0.000498    0.004579
H    -8.868368    2.404022    0.592865   -0.000015    0.001333    0.001098
O    -6.391804    3.099305    0.845039   -0.000441    0.001291    0.001032
O    -5.974864    1.373370   -0.533827    0.114039    0.040874    0.018122
H    -4.446100    1.942999   -0.273854   -1.858394   -0.666250   -0.295615
8
* Frequency(23) 3742.4935
C    -8.215305    1.748022    0.006858   -0.001403   -0.001061   -0.000663
C    -6.782282    2.175387    0.176348    0.006211    0.000286   -0.000480
H    -8.336459    0.701344    0.333363   -0.001264    0.004412   -0.000475
H    -8.494800    1.787654   -1.059566   -0.000649    0.000498    0.004579
H    -8.868367    2.403984    0.592834   -0.000015    0.001333    0.001098
O    -6.391791    3.099268    0.845010   -0.000441    0.001291    0.001032
O    -5.978089    1.372214   -0.534340    0.114039    0.040874    0.018122
H    -4.393538    1.961843   -0.265493   -1.858394   -0.666250   -0.295615
8
* Frequency(23) 3742.4935
C    -8.215319    1.748012    0.006852   -0.001403   -0.001061   -0.000663
C    -6.782223    2.175390    0.176344    0.006211    0.000286   -0.000480
H    -8.336471    0.701386    0.333358   -0.001264    0.004412   -0.000475
H    -8.494806    1.787659   -1.059522   -0.000649    0.000498    0.004579
H    -8.868367    2.403997    0.592844   -0.000015    0.001333    0.001098
O    -6.391795    3.099280    0.845019   -0.000441    0.001291    0.001032
O    -5.977004    1.372603   -0.534167    0.114039    0.040874    0.018122
H    -4.411219    1.955504   -0.268305   -1.858394   -0.666250   -0.295615
8
* Frequency(23) 3742.4935
C    -8.215384    1.747962    0.006821   -0.001403   -0.001061   -0.000663
C    -6.781936    2.175403    0.176321    0.006211    0.000286   -0.000480
H    -8.336529    0.701590    0.333336   -0.001264    0.004412   -0.000475
H    -8.494836    1.787682   -1.059310   -0.000649    0.000498    0.004579
H    -8.868368    2.404059    0.592895   -0.000015    0.001333    0.001098
O    -6.391816    3.099340    0.845067   -0.000441    0.001291    0.001032
O    -5.971726    1.374495   -0.533329    0.114039    0.040874    0.018122
H    -4.497229    1.924669   -0.281987   -1.858394   -0.666250   -0.295615
8
* Frequency(23) 3742.4935
C    -8.215493    1.747880    0.006770   -0.001403   -0.001061   -0.000663
C    -6.781451    2.175425    0.176284    0.006211    0.000286   -0.000480
H    -8.336628    0.701934    0.333299   -0.001264    0.004412   -0.000475
H    -8.494887    1.787721   -1.058953   -0.000649    0.000498    0.004579
H    -8.868369    2.404163    0.592981   -0.000015    0.001333    0.001098
O    -6.391850    3.099441    0.845148   -0.000441    0.001291    0.001032
O    -5.962827    1.377685   -0.531915    0.114039    0.040874    0.018122
H    -4.642247    1.872679   -0.305055   -1.858394   -0.666250   -0.295615
8
* Frequency(23) 3742.4935
C    -8.215635    1.747772    0.006703   -0.001403   -0.001061   -0.000663
C    -6.780822    2.175454    0.176235    0.006211    0.000286   -0.000480
H    -8.336756    0.702381    0.333251   -0.001264    0.004412   -0.000475
H    -8.494953    1.787771   -1.058489   -0.000649    0.000498    0.004579
H    -8.868371    2.404298    0.593092   -0.000015    0.001333    0.001098
O    -6.391895    3.099572    0.845252   -0.000441    0.001291    0.001032
O    -5.951272    1.381826   -0.530078    0.114039    0.040874    0.018122
H    -4.830557    1.805168   -0.335009   -1.858394   -0.666250   -0.295615
8
* Frequency(23) 3742.4935
C    -8.215795    1.747651    0.006627   -0.001403   -0.001061   -0.000663
C    -6.780116    2.175487    0.176181    0.006211    0.000286   -0.000480
H    -8.336900    0.702882    0.333197   -0.001264    0.004412   -0.000475
H    -8.495026    1.787828   -1.057969   -0.000649    0.000498    0.004579
H    -8.868373    2.404449    0.593217   -0.000015    0.001333    0.001098
O    -6.391945    3.099718    0.845370   -0.000441    0.001291    0.001032
O    -5.938312    1.386471   -0.528019    0.114039    0.040874    0.018122
H    -5.041754    1.729452   -0.368604   -1.858394   -0.666250   -0.295615
