8
* (null), Energy   -1000.0000000
C    -8.215795    1.747651    0.006627   -0.009101    0.048160   -0.062472
C    -6.780116    2.175487    0.176181   -0.023246    0.157391   -0.203744
H    -8.336900    0.702882    0.333197    0.476682    0.058882    0.174563
H    -8.495026    1.787828   -1.057969   -0.458976   -0.235312    0.051689
H    -8.868373    2.404449    0.593217    0.019921   -0.138230    0.178620
O    -6.391945    3.099718    0.845370    0.012095   -0.077688    0.100097
O    -5.938312    1.386471   -0.528019    0.020228   -0.126065    0.164463
H    -5.041754    1.729452   -0.368604   -0.165226    1.099354   -1.431839
8
* Frequency(10)  681.8166
C    -8.216829    1.753125   -0.000472   -0.009101    0.048160   -0.062472
C    -6.782758    2.193373    0.153027   -0.023246    0.157391   -0.203744
H    -8.282727    0.709574    0.353035    0.476682    0.058882    0.174563
H    -8.547187    1.761086   -1.052095   -0.458976   -0.235312    0.051689
H    -8.866109    2.388740    0.613516    0.019921   -0.138230    0.178620
O    -6.390571    3.090889    0.856745    0.012095   -0.077688    0.100097
O    -5.936013    1.372145   -0.509328    0.020228   -0.126065    0.164463
H    -5.060531    1.854388   -0.531326   -0.165226    1.099354   -1.431839
8
* Frequency(10)  681.8166
C    -8.217751    1.758005   -0.006803   -0.009101    0.048160   -0.062472
C    -6.785113    2.209322    0.132381   -0.023246    0.157391   -0.203744
H    -8.234425    0.715541    0.370724    0.476682    0.058882    0.174563
H    -8.593694    1.737242   -1.046857   -0.458976   -0.235312    0.051689
H    -8.864090    2.374733    0.631616    0.019921   -0.138230    0.178620
O    -6.389345    3.083017    0.866888    0.012095   -0.077688    0.100097
O    -5.933963    1.359371   -0.492663    0.020228   -0.126065    0.164463
H    -5.077273    1.965786   -0.676413   -0.165226    1.099354   -1.431839
8
* Frequency(10)  681.8166
C    -8.218462    1.761763   -0.011678   -0.009101    0.048160   -0.062472
C    -6.786927    2.221604    0.116482   -0.023246    0.157391   -0.203744
H    -8.197228    0.720135    0.384345    0.476682    0.058882    0.174563
H    -8.629510    1.718880   -1.042823   -0.458976   -0.235312    0.051689
H    -8.862536    2.363947    0.645554    0.019921   -0.138230    0.178620
O    -6.388401    3.076955    0.874699    0.012095   -0.077688    0.100097
O    -5.932385    1.349533   -0.479830    0.020228   -0.126065    0.164463
H    -5.090167    2.051572   -0.788145   -0.165226    1.099354   -1.431839
8
* Frequency(10)  681.8166
C    -8.218883    1.763991   -0.014569   -0.009101    0.048160   -0.062472
C    -6.788003    2.228888    0.107053   -0.023246    0.157391   -0.203744
H    -8.175166    0.722860    0.392424    0.476682    0.058882    0.174563
H    -8.650752    1.707989   -1.040431   -0.458976   -0.235312    0.051689
H    -8.861614    2.357549    0.653821    0.019921   -0.138230    0.178620
O    -6.387841    3.073360    0.879332    0.012095   -0.077688    0.100097
O    -5.931448    1.343699   -0.472218    0.020228   -0.126065    0.164463
H    -5.097814    2.102453   -0.854413   -0.165226    1.099354   -1.431839
8
* Frequency(10)  681.8166
C    -8.218969    1.764450   -0.015163   -0.009101    0.048160   -0.062472
C    -6.788224    2.230385    0.105114   -0.023246    0.157391   -0.203744
H    -8.170631    0.723421    0.394085    0.476682    0.058882    0.174563
H    -8.655119    1.705750   -1.039939   -0.458976   -0.235312    0.051689
H    -8.861424    2.356234    0.655521    0.019921   -0.138230    0.178620
O    -6.387726    3.072620    0.880284    0.012095   -0.077688    0.100097
O    -5.931256    1.342499   -0.470653    0.020228   -0.126065    0.164463
H    -5.099386    2.112912   -0.868037   -0.165226    1.099354   -1.431839
8
* Frequency(10)  681.8166
C    -8.218712    1.763088   -0.013396   -0.009101    0.048160   -0.062472
C    -6.787567    2.225934    0.110877   -0.023246    0.157391   -0.203744
H    -8.184113    0.721755    0.389148    0.476682    0.058882    0.174563
H    -8.642138    1.712406   -1.041401   -0.458976   -0.235312    0.051689
H    -8.861988    2.360144    0.650468    0.019921   -0.138230    0.178620
O    -6.388068    3.074818    0.877453    0.012095   -0.077688    0.100097
O    -5.931828    1.346065   -0.475305    0.020228   -0.126065    0.164463
H    -5.094712    2.081818   -0.827539   -0.165226    1.099354   -1.431839
8
* Frequency(10)  681.8166
C    -8.218138    1.760053   -0.009460   -0.009101    0.048160   -0.062472
C    -6.786102    2.216015    0.123716   -0.023246    0.157391   -0.203744
H    -8.214153    0.718045    0.378148    0.476682    0.058882    0.174563
H    -8.613214    1.727234   -1.044659   -0.458976   -0.235312    0.051689
H    -8.863243    2.368855    0.639212    0.019921   -0.138230    0.178620
O    -6.388831    3.079713    0.871145    0.012095   -0.077688    0.100097
O    -5.933103    1.354009   -0.485669    0.020228   -0.126065    0.164463
H    -5.084300    2.012540   -0.737308   -0.165226    1.099354   -1.431839
8
* Frequency(10)  681.8166
C    -8.217311    1.755674   -0.003779   -0.009101    0.048160   -0.062472
C    -6.783988    2.201705    0.142241   -0.023246    0.157391   -0.203744
H    -8.257493    0.712691    0.362276    0.476682    0.058882    0.174563
H    -8.571483    1.748629   -1.049358   -0.458976   -0.235312    0.051689
H    -8.865054    2.381423    0.622972    0.019921   -0.138230    0.178620
O    -6.389930    3.086777    0.862044    0.012095   -0.077688    0.100097
O    -5.934942    1.365471   -0.500622    0.020228   -0.126065    0.164463
H    -5.069278    1.912585   -0.607123   -0.165226    1.099354   -1.431839
8
* Frequency(10)  681.8166
C    -8.216319    1.750426    0.003028   -0.009101    0.048160   -0.062472
C    -6.781455    2.184554    0.164444   -0.023246    0.157391   -0.203744
H    -8.309439    0.706274    0.343253    0.476682    0.058882    0.174563
H    -8.521467    1.774272   -1.054991   -0.458976   -0.235312    0.051689
H    -8.867225    2.396486    0.603507    0.019921   -0.138230    0.178620
O    -6.391248    3.095243    0.851136    0.012095   -0.077688    0.100097
O    -5.937146    1.379209   -0.518544    0.020228   -0.126065    0.164463
H    -5.051272    1.792784   -0.451090   -0.165226    1.099354   -1.431839
8
* Frequency(10)  681.8166
C    -8.215271    1.744877    0.010226   -0.009101    0.048160   -0.062472
C    -6.778777    2.166420    0.187918   -0.023246    0.157391   -0.203744
H    -8.364361    0.699490    0.323141    0.476682    0.058882    0.174563
H    -8.468586    1.801384   -1.060946   -0.458976   -0.235312    0.051689
H    -8.869520    2.412413    0.582927    0.019921   -0.138230    0.178620
O    -6.392642    3.104194    0.839603    0.012095   -0.077688    0.100097
O    -5.939477    1.393734   -0.537493    0.020228   -0.126065    0.164463
H    -5.032236    1.666121   -0.286119   -0.165226    1.099354   -1.431839
8
* Frequency(10)  681.8166
C    -8.214279    1.739629    0.017034   -0.009101    0.048160   -0.062472
C    -6.776243    2.149268    0.210121   -0.023246    0.157391   -0.203744
H    -8.416306    0.693074    0.304118    0.476682    0.058882    0.174563
H    -8.418570    1.827027   -1.066579   -0.458976   -0.235312    0.051689
H    -8.871691    2.427476    0.563462    0.019921   -0.138230    0.178620
O    -6.393960    3.112660    0.828695    0.012095   -0.077688    0.100097
O    -5.941681    1.407472   -0.555415    0.020228   -0.126065    0.164463
H    -5.014230    1.546320   -0.130086   -0.165226    1.099354   -1.431839
8
* Frequency(10)  681.8166
C    -8.213451    1.735250    0.022714   -0.009101    0.048160   -0.062472
C    -6.774130    2.134958    0.228646   -0.023246    0.157391   -0.203744
H    -8.459647    0.687720    0.288247    0.476682    0.058882    0.174563
H    -8.376839    1.848422   -1.071279   -0.458976   -0.235312    0.051689
H    -8.873502    2.440044    0.547222    0.019921   -0.138230    0.178620
O    -6.395060    3.119723    0.819594    0.012095   -0.077688    0.100097
O    -5.943520    1.418934   -0.570369    0.020228   -0.126065    0.164463
H    -4.999208    1.446365    0.000099   -0.165226    1.099354   -1.431839
8
* Frequency(10)  681.8166
C    -8.212878    1.732215    0.026651   -0.009101    0.048160   -0.062472
C    -6.772665    2.125039    0.241485   -0.023246    0.157391   -0.203744
H    -8.489686    0.684010    0.277246    0.476682    0.058882    0.174563
H    -8.347915    1.863250   -1.074536   -0.458976   -0.235312    0.051689
H    -8.874757    2.448755    0.535966    0.019921   -0.138230    0.178620
O    -6.395822    3.124619    0.813286    0.012095   -0.077688    0.100097
O    -5.944795    1.426878   -0.580733    0.020228   -0.126065    0.164463
H    -4.988796    1.377087    0.090330   -0.165226    1.099354   -1.431839
8
* Frequency(10)  681.8166
C    -8.212620    1.730853    0.028418   -0.009101    0.048160   -0.062472
C    -6.772007    2.120588    0.247248   -0.023246    0.157391   -0.203744
H    -8.503169    0.682344    0.272309    0.476682    0.058882    0.174563
H    -8.334934    1.869906   -1.075998   -0.458976   -0.235312    0.051689
H    -8.875321    2.452665    0.530913    0.019921   -0.138230    0.178620
O    -6.396164    3.126816    0.810455    0.012095   -0.077688    0.100097
O    -5.945367    1.430443   -0.585384    0.020228   -0.126065    0.164463
H    -4.984122    1.345993    0.130828   -0.165226    1.099354   -1.431839
8
* Frequency(10)  681.8166
C    -8.212707    1.731311    0.027824   -0.009101    0.048160   -0.062472
C    -6.772229    2.122085    0.245309   -0.023246    0.157391   -0.203744
H    -8.498633    0.682904    0.273970    0.476682    0.058882    0.174563
H    -8.339301    1.867667   -1.075506   -0.458976   -0.235312    0.051689
H    -8.875131    2.451350    0.532613    0.019921   -0.138230    0.178620
O    -6.396049    3.126077    0.811408    0.012095   -0.077688    0.100097
O    -5.945175    1.429244   -0.583819    0.020228   -0.126065    0.164463
H    -4.985694    1.356452    0.117204   -0.165226    1.099354   -1.431839
8
* Frequency(10)  681.8166
C    -8.213128    1.733540    0.024932   -0.009101    0.048160   -0.062472
C    -6.773304    2.129370    0.235879   -0.023246    0.157391   -0.203744
H    -8.476572    0.685629    0.282049    0.476682    0.058882    0.174563
H    -8.360543    1.856776   -1.073114   -0.458976   -0.235312    0.051689
H    -8.874209    2.444952    0.540880    0.019921   -0.138230    0.178620
O    -6.395489    3.122482    0.816040    0.012095   -0.077688    0.100097
O    -5.944238    1.423409   -0.576208    0.020228   -0.126065    0.164463
H    -4.993341    1.407333    0.050936   -0.165226    1.099354   -1.431839
8
* Frequency(10)  681.8166
C    -8.213838    1.737298    0.020057   -0.009101    0.048160   -0.062472
C    -6.775118    2.141651    0.219981   -0.023246    0.157391   -0.203744
H    -8.439374    0.690224    0.295671    0.476682    0.058882    0.174563
H    -8.396358    1.838414   -1.069081   -0.458976   -0.235312    0.051689
H    -8.872655    2.434165    0.554818    0.019921   -0.138230    0.178620
O    -6.394545    3.116419    0.823851    0.012095   -0.077688    0.100097
O    -5.942660    1.413572   -0.563374    0.020228   -0.126065    0.164463
H    -5.006235    1.493119   -0.060796   -0.165226    1.099354   -1.431839
8
* Frequency(10)  681.8166
C    -8.214761    1.742178    0.013727   -0.009101    0.048160   -0.062472
C    -6.777474    2.157600    0.199335   -0.023246    0.157391   -0.203744
H    -8.391072    0.696191    0.313359    0.476682    0.058882    0.174563
H    -8.442866    1.814570   -1.063843   -0.458976   -0.235312    0.051689
H    -8.870636    2.420159    0.572918    0.019921   -0.138230    0.178620
O    -6.393320    3.108547    0.833994    0.012095   -0.077688    0.100097
O    -5.940610    1.400798   -0.546709    0.020228   -0.126065    0.164463
H    -5.022977    1.604517   -0.205883   -0.165226    1.099354   -1.431839
8
* Frequency(10)  681.8166
C    -8.215795    1.747651    0.006627   -0.009101    0.048160   -0.062472
C    -6.780116    2.175487    0.176181   -0.023246    0.157391   -0.203744
H    -8.336900    0.702882    0.333197    0.476682    0.058882    0.174563
H    -8.495026    1.787828   -1.057969   -0.458976   -0.235312    0.051689
H    -8.868373    2.404449    0.593217    0.019921   -0.138230    0.178620
O    -6.391945    3.099718    0.845370    0.012095   -0.077688    0.100097
O    -5.938312    1.386471   -0.528019    0.020228   -0.126065    0.164463
H    -5.041754    1.729452   -0.368604   -0.165226    1.099354   -1.431839
