8
Coordinates from ORCA-job AcOH E -228.788081256735
  C      -8.235080      1.752520     -0.004460
  C      -6.804370      2.183600      0.034870
  H      -8.303010      0.653820     -0.150410
  H      -8.755660      2.259950     -0.843500
  H      -8.732730      2.020130      0.951150
  O      -6.528600      3.363730      0.189040
  O      -5.820210      1.269610     -0.099830
  H      -4.888560      1.530580     -0.076860
8
Coordinates from ORCA-job AcOH E -228.795057861126
  C      -8.218379      1.740101     -0.006400
  C      -6.792457      2.207022      0.037725
  H      -8.289425      0.650447     -0.151066
  H      -8.735305      2.247804     -0.832741
  H      -8.712874      2.011575      0.937195
  O      -6.500196      3.375210      0.190382
  O      -5.868084      1.248709     -0.101866
  H      -4.951500      1.553072     -0.073228
8
Coordinates from ORCA-job AcOH E -228.797524745901
  C      -8.206101      1.727064     -0.008260
  C      -6.779515      2.222449      0.040148
  H      -8.277735      0.642657     -0.152107
  H      -8.726038      2.243085     -0.828037
  H      -8.704372      2.008569      0.930896
  O      -6.458810      3.374371      0.189849
  O      -5.905642      1.219543     -0.105225
  H      -5.010006      1.596201     -0.067265
8
Coordinates from ORCA-job AcOH E -228.797711833675
  C      -8.209821      1.727149     -0.008300
  C      -6.780201      2.218683      0.038802
  H      -8.280291      0.642037     -0.152041
  H      -8.731786      2.245188     -0.826697
  H      -8.709381      2.011202      0.930421
  O      -6.453103      3.368809      0.189461
  O      -5.897288      1.215298     -0.106134
  H      -5.006349      1.605574     -0.065513
8
Coordinates from ORCA-job AcOH E -228.797776849067
  C      -8.212086      1.727532     -0.007846
  C      -6.781957      2.213975      0.041144
  H      -8.279179      0.641794     -0.151432
  H      -8.734117      2.247270     -0.825943
  H      -8.714752      2.014307      0.929028
  O      -6.446818      3.362255      0.188468
  O      -5.891570      1.210127     -0.107488
  H      -5.007740      1.616680     -0.065932
8
Coordinates from ORCA-job AcOH E -228.797774103593
  C      -8.212027      1.727996     -0.008549
  C      -6.782826      2.214022      0.034999
  H      -8.277724      0.642117     -0.151694
  H      -8.737185      2.247221     -0.824890
  H      -8.712013      2.014678      0.929798
  O      -6.446003      3.361019      0.189986
  O      -5.891618      1.209325     -0.107492
  H      -5.008823      1.617562     -0.062160
8
Coordinates from ORCA-job AcOH E -228.797780494081
  C      -8.211824      1.728004     -0.008060
  C      -6.782794      2.213731      0.038865
  H      -8.277480      0.642155     -0.151241
  H      -8.735022      2.247011     -0.825753
  H      -8.713688      2.014685      0.929193
  O      -6.446361      3.361509      0.189413
  O      -5.892154      1.209693     -0.107756
  H      -5.008897      1.617152     -0.064660
8
Coordinates from ORCA-job AcOH E -228.797780596833
  C      -8.211736      1.728101     -0.008012
  C      -6.782866      2.213721      0.039079
  H      -8.277104      0.642208     -0.150973
  H      -8.734838      2.246729     -0.825995
  H      -8.713871      2.014841      0.929059
  O      -6.446204      3.361471      0.189757
  O      -5.892437      1.209722     -0.107984
  H      -5.009165      1.617146     -0.064931
8
Coordinates from ORCA-job AcOH E -228.797780636067
  C      -8.211686      1.728210     -0.007954
  C      -6.782902      2.213733      0.039281
  H      -8.276760      0.642240     -0.150479
  H      -8.734662      2.246240     -0.826394
  H      -8.714200      2.015198      0.928821
  O      -6.445991      3.361389      0.190464
  O      -5.892658      1.209784     -0.108415
  H      -5.009361      1.617146     -0.065324
8
Coordinates from ORCA-job AcOH E -228.797780664866
  C      -8.211665      1.728301     -0.007873
  C      -6.782903      2.213749      0.039577
  H      -8.276501      0.642219     -0.149709
  H      -8.734374      2.245539     -0.826990
  H      -8.714696      2.015827      0.928443
  O      -6.445799      3.361263      0.191578
  O      -5.892806      1.209880     -0.109096
  H      -5.009476      1.617162     -0.065930
8
Coordinates from ORCA-job AcOH E -228.797780770833
  C      -8.211604      1.728619     -0.007459
  C      -6.782877      2.213775      0.041141
  H      -8.275577      0.641988     -0.145648
  H      -8.732708      2.241975     -0.830087
  H      -8.717198      2.019306      0.926423
  O      -6.445088      3.360567      0.197469
  O      -5.893320      1.210388     -0.112703
  H      -5.009848      1.617320     -0.069136
8
Coordinates from ORCA-job AcOH E -228.797782122633
  C      -8.211245      1.730600     -0.004484
  C      -6.782662      2.213545      0.052744
  H      -8.270245      0.640388     -0.115422
  H      -8.719510      2.215600     -0.852385
  H      -8.735094      2.045420      0.910789
  O      -6.440401      3.354538      0.241097
  O      -5.896729      1.214631     -0.139445
  H      -5.012335      1.619219     -0.092894
8
Coordinates from ORCA-job AcOH E -228.795197981327
  C      -8.218599      1.686664     -0.001388
  C      -6.789886      2.187622      0.063729
  H      -8.382007      0.605189     -0.079086
  H      -8.634823      2.223677     -0.869741
  H      -8.692143      2.122985      0.890761
  O      -6.524684      3.333342      0.293121
  O      -5.847790      1.221022     -0.175963
  H      -4.978287      1.653440     -0.121432
8
Coordinates from ORCA-job AcOH E -228.797794334168
  C      -8.211809      1.727916     -0.003963
  C      -6.782798      2.211576      0.055314
  H      -8.277228      0.637689     -0.109393
  H      -8.712558      2.212932     -0.856603
  H      -8.735489      2.054039      0.907381
  O      -6.444917      3.352245      0.250269
  O      -5.893427      1.215489     -0.145110
  H      -5.009994      1.622053     -0.097894
8
Coordinates from ORCA-job AcOH E -228.797797575814
  C      -8.211802      1.727895     -0.003441
  C      -6.782743      2.211249      0.057167
  H      -8.277319      0.637227     -0.104484
  H      -8.709855      2.208823     -0.860056
  H      -8.737995      2.058769      0.904654
  O      -6.444801      3.350942      0.257468
  O      -5.893591      1.216302     -0.149492
  H      -5.010114      1.622733     -0.101817
8
Coordinates from ORCA-job AcOH E -228.797855717308
  C      -8.211854      1.727818      0.002498
  C      -6.782212      2.206800      0.079168
  H      -8.279743      0.633636     -0.047476
  H      -8.677819      2.160275     -0.897947
  H      -8.766176      2.112252      0.870825
  O      -6.441760      3.333547      0.339745
  O      -5.896157      1.227137     -0.200038
  H      -5.012499      1.632474     -0.146773
8
Coordinates from ORCA-job AcOH E -228.797942900939
  C      -8.211943      1.728494      0.007894
  C      -6.781817      2.201981      0.100294
  H      -8.284495      0.633196      0.009743
  H      -8.644837      2.109454     -0.932295
  H      -8.791437      2.163545      0.833742
  O      -6.437000      3.311856      0.420963
  O      -5.900473      1.241224     -0.250130
  H      -5.016217      1.644191     -0.190212
8
Coordinates from ORCA-job AcOH E -228.798048709894
  C      -8.212137      1.730522      0.012127
  C      -6.781657      2.197585      0.119512
  H      -8.290289      0.636531      0.066872
  H      -8.612310      2.056030     -0.963241
  H      -8.813357      2.211816      0.794456
  O      -6.430256      3.285954      0.500970
  O      -5.906854      1.258526     -0.299896
  H      -5.021361      1.656975     -0.230800
8
Coordinates from ORCA-job AcOH E -228.798053694231
  C      -8.212294      1.731323      0.011257
  C      -6.781927      2.198684      0.118207
  H      -8.288959      0.637166      0.067026
  H      -8.613699      2.055562     -0.963776
  H      -8.812632      2.210540      0.795617
  O      -6.429760      3.286245      0.501122
  O      -5.907436      1.258726     -0.300522
  H      -5.021513      1.655695     -0.228931
8
Coordinates from ORCA-job AcOH E -228.798168352623
  C      -8.213066      1.734817      0.013193
  C      -6.782095      2.194961      0.135077
  H      -8.295866      0.644727      0.124254
  H      -8.582893      1.999776     -0.991821
  H      -8.830588      2.255373      0.755669
  O      -6.421641      3.255929      0.579436
  O      -5.914978      1.279428     -0.350309
  H      -5.027093      1.668929     -0.265500
8
Coordinates from ORCA-job AcOH E -228.798269837703
  C      -8.213807      1.738150      0.014668
  C      -6.781953      2.189948      0.151225
  H      -8.305719      0.655198      0.180761
  H      -8.552140      1.942758     -1.015258
  H      -8.846073      2.299274      0.712791
  O      -6.413125      3.220675      0.655498
  O      -5.922646      1.303275     -0.398852
  H      -5.032757      1.684663     -0.300834
8
Coordinates from ORCA-job AcOH E -228.798345888160
  C      -8.214568      1.741722      0.014897
  C      -6.781682      2.184587      0.165098
  H      -8.317194      0.669051      0.236474
  H      -8.523591      1.884699     -1.034265
  H      -8.858462      2.341153      0.668226
  O      -6.404212      3.180626      0.728896
  O      -5.930386      1.330562     -0.446620
  H      -5.038126      1.701540     -0.332705
8
Coordinates from ORCA-job AcOH E -228.798390772473
  C      -8.215394      1.745583      0.013049
  C      -6.781339      2.179564      0.175409
  H      -8.329194      0.686703      0.291552
  H      -8.499543      1.826187     -1.049129
  H      -8.867438      2.380221      0.623161
  O      -6.395330      3.135724      0.799106
  O      -5.937534      1.361568     -0.493799
  H      -5.042448      1.718389     -0.359349
8
Coordinates from ORCA-job AcOH E -228.798409597872
  C      -8.215883      1.747616      0.009850
  C      -6.781047      2.177826      0.176863
  H      -8.333972      0.697430      0.319172
  H      -8.493160      1.798270     -1.055227
  H      -8.869799      2.397275      0.602370
  O      -6.391809      3.111559      0.831812
  O      -5.939607      1.378755     -0.517597
  H      -5.042943      1.725209     -0.367244
8
Coordinates from ORCA-job AcOH E -228.798416348061
  C      -8.215971      1.748145      0.007333
  C      -6.780578      2.176866      0.175949
  H      -8.335256      0.701955      0.329966
  H      -8.494245      1.789495     -1.057471
  H      -8.869451      2.402475      0.595632
  O      -6.391410      3.102357      0.842674
  O      -5.939126      1.385239     -0.526404
  H      -5.042184      1.727408     -0.367678
8
Coordinates from ORCA-job AcOH E -228.798417072755
  C      -8.215887      1.747965      0.006621
  C      -6.780247      2.175982      0.176004
  H      -8.336226      0.703018      0.332984
  H      -8.494809      1.787694     -1.058042
  H      -8.868856      2.404022      0.593603
  O      -6.391685      3.099922      0.845303
  O      -5.938633      1.386606     -0.528267
  H      -5.041876      1.728731     -0.368206
8
Coordinates from ORCA-job AcOH E -228.798417014300
  C      -8.215825      1.747739      0.006563
  C      -6.780126      2.175559      0.176149
  H      -8.336772      0.703022      0.333402
  H      -8.494954      1.787668     -1.058056
  H      -8.868492      2.404419      0.593183
  O      -6.391911      3.099593      0.845558
  O      -5.938372      1.386602     -0.528237
  H      -5.041767      1.729337     -0.368561
8
Coordinates from ORCA-job AcOH E -228.798416977380
  C      -8.215803      1.747666      0.006609
  C      -6.780113      2.175486      0.176188
  H      -8.336890      0.702921      0.333274
  H      -8.494992      1.787791     -1.057998
  H      -8.868397      2.404453      0.593191
  O      -6.391946      3.099674      0.845430
  O      -5.938320      1.386497     -0.528068
  H      -5.041758      1.729452     -0.368625
8
Coordinates from ORCA-job AcOH E -228.798416976440
  C      -8.215795      1.747651      0.006627
  C      -6.780116      2.175487      0.176181
  H      -8.336900      0.702882      0.333197
  H      -8.495026      1.787828     -1.057969
  H      -8.868373      2.404449      0.593217
  O      -6.391945      3.099718      0.845370
  O      -5.938312      1.386471     -0.528019
  H      -5.041754      1.729452     -0.368604
