8
* (null), Energy   -1000.0000000
C    -8.215795    1.747651    0.006627    0.029402   -0.206231    0.266854
C    -6.780116    2.175487    0.176181   -0.038329    0.260300   -0.337375
H    -8.336900    0.702882    0.333197   -1.129886   -0.277326   -0.472176
H    -8.495026    1.787828   -1.057969    1.086006    0.643368   -0.003470
H    -8.868373    2.404449    0.593217   -0.069187    0.439984   -0.566546
O    -6.391945    3.099718    0.845370    0.008089   -0.054132    0.069713
O    -5.938312    1.386471   -0.528019    0.005859   -0.038422    0.050737
H    -5.041754    1.729452   -0.368604   -0.001928    0.018719   -0.029290
8
* Frequency(13) 1053.9021
C    -8.212453    1.724214    0.036954    0.029402   -0.206231    0.266854
C    -6.784472    2.205068    0.137840   -0.038329    0.260300   -0.337375
H    -8.465306    0.671366    0.279537   -1.129886   -0.277326   -0.472176
H    -8.371607    1.860943   -1.058363    1.086006    0.643368   -0.003470
H    -8.876235    2.454451    0.528832   -0.069187    0.439984   -0.566546
O    -6.391026    3.093566    0.853292    0.008089   -0.054132    0.069713
O    -5.937646    1.382105   -0.522253    0.005859   -0.038422    0.050737
H    -5.041973    1.731580   -0.371933   -0.001928    0.018719   -0.029290
8
* Frequency(13) 1053.9021
C    -8.209474    1.703317    0.063994    0.029402   -0.206231    0.266854
C    -6.788356    2.231444    0.103654   -0.038329    0.260300   -0.337375
H    -8.579796    0.643264    0.231691   -1.129886   -0.277326   -0.472176
H    -8.261563    1.926136   -1.058715    1.086006    0.643368   -0.003470
H    -8.883246    2.499035    0.471424   -0.069187    0.439984   -0.566546
O    -6.390206    3.088081    0.860356    0.008089   -0.054132    0.069713
O    -5.937052    1.378212   -0.517112    0.005859   -0.038422    0.050737
H    -5.042169    1.733477   -0.374901   -0.001928    0.018719   -0.029290
8
* Frequency(13) 1053.9021
C    -8.207180    1.687224    0.084818    0.029402   -0.206231    0.266854
C    -6.791347    2.251757    0.077327   -0.038329    0.260300   -0.337375
H    -8.667966    0.621623    0.194846   -1.129886   -0.277326   -0.472176
H    -8.176818    1.976340   -1.058985    1.086006    0.643368   -0.003470
H    -8.888645    2.533368    0.427214   -0.069187    0.439984   -0.566546
O    -6.389575    3.083857    0.865796    0.008089   -0.054132    0.069713
O    -5.936595    1.375214   -0.513152    0.005859   -0.038422    0.050737
H    -5.042319    1.734937   -0.377187   -0.001928    0.018719   -0.029290
8
* Frequency(13) 1053.9021
C    -8.205819    1.677679    0.097168    0.029402   -0.206231    0.266854
C    -6.793121    2.263804    0.061713   -0.038329    0.260300   -0.337375
H    -8.720259    0.608788    0.172992   -1.129886   -0.277326   -0.472176
H    -8.126555    2.006116   -1.059146    1.086006    0.643368   -0.003470
H    -8.891847    2.553732    0.400993   -0.069187    0.439984   -0.566546
O    -6.389201    3.081352    0.869023    0.008089   -0.054132    0.069713
O    -5.936324    1.373435   -0.510804    0.005859   -0.038422    0.050737
H    -5.042408    1.735804   -0.378542   -0.001928    0.018719   -0.029290
8
* Frequency(13) 1053.9021
C    -8.205539    1.675717    0.099707    0.029402   -0.206231    0.266854
C    -6.793485    2.266281    0.058503   -0.038329    0.260300   -0.337375
H    -8.731009    0.606150    0.168500   -1.129886   -0.277326   -0.472176
H    -8.116222    2.012238   -1.059179    1.086006    0.643368   -0.003470
H    -8.892505    2.557918    0.395603   -0.069187    0.439984   -0.566546
O    -6.389124    3.080837    0.869686    0.008089   -0.054132    0.069713
O    -5.936268    1.373070   -0.510321    0.005859   -0.038422    0.050737
H    -5.042427    1.735982   -0.378821   -0.001928    0.018719   -0.029290
8
* Frequency(13) 1053.9021
C    -8.206371    1.681550    0.092160    0.029402   -0.206231    0.266854
C    -6.792401    2.258918    0.068045   -0.038329    0.260300   -0.337375
H    -8.699052    0.613994    0.181855   -1.129886   -0.277326   -0.472176
H    -8.146939    1.994041   -1.059081    1.086006    0.643368   -0.003470
H    -8.890548    2.545473    0.411627   -0.069187    0.439984   -0.566546
O    -6.389353    3.082368    0.867714    0.008089   -0.054132    0.069713
O    -5.936434    1.374156   -0.511756    0.005859   -0.038422    0.050737
H    -5.042372    1.735452   -0.377993   -0.001928    0.018719   -0.029290
8
* Frequency(13) 1053.9021
C    -8.208224    1.694546    0.075343    0.029402   -0.206231    0.266854
C    -6.789986    2.242515    0.089306   -0.038329    0.260300   -0.337375
H    -8.627849    0.631470    0.211610   -1.129886   -0.277326   -0.472176
H    -8.215376    1.953497   -1.058862    1.086006    0.643368   -0.003470
H    -8.886188    2.517747    0.447329   -0.069187    0.439984   -0.566546
O    -6.389862    3.085779    0.863321    0.008089   -0.054132    0.069713
O    -5.936803    1.376578   -0.514954    0.005859   -0.038422    0.050737
H    -5.042251    1.734273   -0.376147   -0.001928    0.018719   -0.029290
8
* Frequency(13) 1053.9021
C    -8.210897    1.713297    0.051080    0.029402   -0.206231    0.266854
C    -6.786501    2.218848    0.119980   -0.038329    0.260300   -0.337375
H    -8.525118    0.656685    0.254541   -1.129886   -0.277326   -0.472176
H    -8.314118    1.895001   -1.058547    1.086006    0.643368   -0.003470
H    -8.879898    2.477743    0.498841   -0.069187    0.439984   -0.566546
O    -6.390598    3.090701    0.856983    0.008089   -0.054132    0.069713
O    -5.937336    1.380071   -0.519567    0.005859   -0.038422    0.050737
H    -5.042075    1.732571   -0.373484   -0.001928    0.018719   -0.029290
8
* Frequency(13) 1053.9021
C    -8.214101    1.735771    0.022000    0.029402   -0.206231    0.266854
C    -6.782324    2.190482    0.156745   -0.038329    0.260300   -0.337375
H    -8.401990    0.686906    0.305996   -1.129886   -0.277326   -0.472176
H    -8.432464    1.824891   -1.058169    1.086006    0.643368   -0.003470
H    -8.872358    2.429796    0.560579   -0.069187    0.439984   -0.566546
O    -6.391479    3.096600    0.849386    0.008089   -0.054132    0.069713
O    -5.937974    1.384258   -0.525096    0.005859   -0.038422    0.050737
H    -5.041865    1.730531   -0.370292   -0.001928    0.018719   -0.029290
8
* Frequency(13) 1053.9021
C    -8.217489    1.759532   -0.008746    0.029402   -0.206231    0.266854
C    -6.777908    2.160491    0.195616   -0.038329    0.260300   -0.337375
H    -8.271809    0.718859    0.360398   -1.129886   -0.277326   -0.472176
H    -8.557589    1.750765   -1.057769    1.086006    0.643368   -0.003470
H    -8.864387    2.379103    0.625855   -0.069187    0.439984   -0.566546
O    -6.392411    3.102837    0.841354    0.008089   -0.054132    0.069713
O    -5.938649    1.388685   -0.530942    0.005859   -0.038422    0.050737
H    -5.041643    1.728374   -0.366917   -0.001928    0.018719   -0.029290
8
* Frequency(13) 1053.9021
C    -8.220693    1.782006   -0.037826    0.029402   -0.206231    0.266854
C    -6.773731    2.132125    0.232381   -0.038329    0.260300   -0.337375
H    -8.148682    0.749080    0.411853   -1.129886   -0.277326   -0.472176
H    -8.675935    1.680655   -1.057391    1.086006    0.643368   -0.003470
H    -8.856847    2.331156    0.687593   -0.069187    0.439984   -0.566546
O    -6.393293    3.108736    0.833757    0.008089   -0.054132    0.069713
O    -5.939287    1.392872   -0.536471    0.005859   -0.038422    0.050737
H    -5.041433    1.726334   -0.363725   -0.001928    0.018719   -0.029290
8
* Frequency(13) 1053.9021
C    -8.223366    1.800757   -0.062089    0.029402   -0.206231    0.266854
C    -6.770246    2.108458    0.263056   -0.038329    0.260300   -0.337375
H    -8.045951    0.774295    0.454784   -1.129886   -0.277326   -0.472176
H    -8.774677    1.622158   -1.057075    1.086006    0.643368   -0.003470
H    -8.850557    2.291152    0.739105   -0.069187    0.439984   -0.566546
O    -6.394028    3.113658    0.827418    0.008089   -0.054132    0.069713
O    -5.939820    1.396365   -0.541084    0.005859   -0.038422    0.050737
H    -5.041257    1.724632   -0.361062   -0.001928    0.018719   -0.029290
8
* Frequency(13) 1053.9021
C    -8.225219    1.813753   -0.078905    0.029402   -0.206231    0.266854
C    -6.767830    2.092055    0.284317   -0.038329    0.260300   -0.337375
H    -7.974748    0.791771    0.484539   -1.129886   -0.277326   -0.472176
H    -8.843114    1.581615   -1.056857    1.086006    0.643368   -0.003470
H    -8.846197    2.263425    0.774807   -0.069187    0.439984   -0.566546
O    -6.394538    3.117069    0.823025    0.008089   -0.054132    0.069713
O    -5.940189    1.398786   -0.544281    0.005859   -0.038422    0.050737
H    -5.041136    1.723453   -0.359216   -0.001928    0.018719   -0.029290
8
* Frequency(13) 1053.9021
C    -8.226050    1.819586   -0.086453    0.029402   -0.206231    0.266854
C    -6.766746    2.084693    0.293859   -0.038329    0.260300   -0.337375
H    -7.942791    0.799615    0.497894   -1.129886   -0.277326   -0.472176
H    -8.873830    1.563418   -1.056759    1.086006    0.643368   -0.003470
H    -8.844240    2.250981    0.790831   -0.069187    0.439984   -0.566546
O    -6.394767    3.118600    0.821053    0.008089   -0.054132    0.069713
O    -5.940355    1.399873   -0.545716    0.005859   -0.038422    0.050737
H    -5.041081    1.722923   -0.358388   -0.001928    0.018719   -0.029290
8
* Frequency(13) 1053.9021
C    -8.225770    1.817623   -0.083914    0.029402   -0.206231    0.266854
C    -6.767111    2.087169    0.290649   -0.038329    0.260300   -0.337375
H    -7.953541    0.796977    0.493402   -1.129886   -0.277326   -0.472176
H    -8.863497    1.569539   -1.056792    1.086006    0.643368   -0.003470
H    -8.844898    2.255167    0.785441   -0.069187    0.439984   -0.566546
O    -6.394690    3.118085    0.821717    0.008089   -0.054132    0.069713
O    -5.940299    1.399508   -0.545233    0.005859   -0.038422    0.050737
H    -5.041100    1.723101   -0.358667   -0.001928    0.018719   -0.029290
8
* Frequency(13) 1053.9021
C    -8.224410    1.808079   -0.071563    0.029402   -0.206231    0.266854
C    -6.768885    2.099216    0.275035   -0.038329    0.260300   -0.337375
H    -8.005834    0.784141    0.471549   -1.129886   -0.277326   -0.472176
H    -8.813235    1.599316   -1.056952    1.086006    0.643368   -0.003470
H    -8.848100    2.275530    0.759220   -0.069187    0.439984   -0.566546
O    -6.394315    3.115580    0.824943    0.008089   -0.054132    0.069713
O    -5.940028    1.397729   -0.542885    0.005859   -0.038422    0.050737
H    -5.041189    1.723968   -0.360022   -0.001928    0.018719   -0.029290
8
* Frequency(13) 1053.9021
C    -8.222115    1.791986   -0.050739    0.029402   -0.206231    0.266854
C    -6.771876    2.119529    0.248708   -0.038329    0.260300   -0.337375
H    -8.094003    0.762500    0.434703   -1.129886   -0.277326   -0.472176
H    -8.728490    1.649520   -1.057223    1.086006    0.643368   -0.003470
H    -8.853499    2.309864    0.715010   -0.069187    0.439984   -0.566546
O    -6.393684    3.111355    0.830383    0.008089   -0.054132    0.069713
O    -5.939571    1.394731   -0.538926    0.005859   -0.038422    0.050737
H    -5.041339    1.725428   -0.362308   -0.001928    0.018719   -0.029290
8
* Frequency(13) 1053.9021
C    -8.219136    1.771088   -0.023699    0.029402   -0.206231    0.266854
C    -6.775760    2.145905    0.214522   -0.038329    0.260300   -0.337375
H    -8.208494    0.734399    0.386857   -1.129886   -0.277326   -0.472176
H    -8.618445    1.714712   -1.057574    1.086006    0.643368   -0.003470
H    -8.860510    2.354447    0.657602   -0.069187    0.439984   -0.566546
O    -6.392864    3.105870    0.837447    0.008089   -0.054132    0.069713
O    -5.938977    1.390838   -0.533785    0.005859   -0.038422    0.050737
H    -5.041535    1.727325   -0.365276   -0.001928    0.018719   -0.029290
8
* Frequency(13) 1053.9021
C    -8.215795    1.747651    0.006627    0.029402   -0.206231    0.266854
C    -6.780116    2.175487    0.176181   -0.038329    0.260300   -0.337375
H    -8.336900    0.702882    0.333197   -1.129886   -0.277326   -0.472176
H    -8.495026    1.787828   -1.057969    1.086006    0.643368   -0.003470
H    -8.868373    2.404449    0.593217   -0.069187    0.439984   -0.566546
O    -6.391945    3.099718    0.845370    0.008089   -0.054132    0.069713
O    -5.938312    1.386471   -0.528019    0.005859   -0.038422    0.050737
H    -5.041754    1.729452   -0.368604   -0.001928    0.018719   -0.029290
