8
* (null), Energy   -1000.0000000
C    -8.215795    1.747651    0.006627    0.372616    0.056768    0.002780
C    -6.780116    2.175487    0.176181   -0.437229    0.134455    0.153625
H    -8.336900    0.702882    0.333197   -0.989993    0.193526   -0.064274
H    -8.495026    1.787828   -1.057969   -0.947284   -0.117308    0.341822
H    -8.868373    2.404449    0.593217   -0.541601   -0.523291   -0.354130
O    -6.391945    3.099718    0.845370    0.038717   -0.072022   -0.060056
O    -5.938312    1.386471   -0.528019    0.139502   -0.003785   -0.019106
H    -5.041754    1.729452   -0.368604    0.420090   -0.628265   -0.530623
8
* Frequency(16) 1407.8400
C    -8.173449    1.754103    0.006943    0.372616    0.056768    0.002780
C    -6.829805    2.190767    0.193640   -0.437229    0.134455    0.153625
H    -8.449407    0.724876    0.325893   -0.989993    0.193526   -0.064274
H    -8.602680    1.774497   -1.019122   -0.947284   -0.117308    0.341822
H    -8.929923    2.344980    0.552972   -0.541601   -0.523291   -0.354130
O    -6.387545    3.091533    0.838545    0.038717   -0.072022   -0.060056
O    -5.922458    1.386041   -0.530190    0.139502   -0.003785   -0.019106
H    -4.994013    1.658053   -0.428907    0.420090   -0.628265   -0.530623
8
* Frequency(16) 1407.8400
C    -8.135692    1.759855    0.007225    0.372616    0.056768    0.002780
C    -6.874109    2.204391    0.209206   -0.437229    0.134455    0.153625
H    -8.549723    0.744486    0.319380   -0.989993    0.193526   -0.064274
H    -8.698668    1.762610   -0.984486   -0.947284   -0.117308    0.341822
H    -8.984803    2.291955    0.517088   -0.541601   -0.523291   -0.354130
O    -6.383622    3.084235    0.832459    0.038717   -0.072022   -0.060056
O    -5.908322    1.385658   -0.532126    0.139502   -0.003785   -0.019106
H    -4.951445    1.594392   -0.482675    0.420090   -0.628265   -0.530623
8
* Frequency(16) 1407.8400
C    -8.106615    1.764285    0.007442    0.372616    0.056768    0.002780
C    -6.908228    2.214883    0.221194   -0.437229    0.134455    0.153625
H    -8.626976    0.759587    0.314364   -0.989993    0.193526   -0.064274
H    -8.772589    1.753456   -0.957812   -0.947284   -0.117308    0.341822
H    -9.027066    2.251121    0.489454   -0.541601   -0.523291   -0.354130
O    -6.380601    3.078615    0.827773    0.038717   -0.072022   -0.060056
O    -5.897436    1.385362   -0.533617    0.139502   -0.003785   -0.019106
H    -4.918664    1.545366   -0.524081    0.420090   -0.628265   -0.530623
8
* Frequency(16) 1407.8400
C    -8.089370    1.766912    0.007571    0.372616    0.056768    0.002780
C    -6.928463    2.221106    0.228304   -0.437229    0.134455    0.153625
H    -8.672795    0.768544    0.311390   -0.989993    0.193526   -0.064274
H    -8.816431    1.748027   -0.941992   -0.947284   -0.117308    0.341822
H    -9.052132    2.226902    0.473064   -0.541601   -0.523291   -0.354130
O    -6.378809    3.075282    0.824993    0.038717   -0.072022   -0.060056
O    -5.890980    1.385187   -0.534501    0.139502   -0.003785   -0.019106
H    -4.899222    1.516288   -0.548640    0.420090   -0.628265   -0.530623
8
* Frequency(16) 1407.8400
C    -8.085825    1.767452    0.007597    0.372616    0.056768    0.002780
C    -6.932623    2.222385    0.229766   -0.437229    0.134455    0.153625
H    -8.682214    0.770385    0.310778   -0.989993    0.193526   -0.064274
H    -8.825443    1.746910   -0.938740   -0.947284   -0.117308    0.341822
H    -9.057285    2.221923    0.469695   -0.541601   -0.523291   -0.354130
O    -6.378440    3.074597    0.824422    0.038717   -0.072022   -0.060056
O    -5.889653    1.385151   -0.534683    0.139502   -0.003785   -0.019106
H    -4.895225    1.510311   -0.553688    0.420090   -0.628265   -0.530623
8
* Frequency(16) 1407.8400
C    -8.096364    1.765847    0.007518    0.372616    0.056768    0.002780
C    -6.920257    2.218582    0.225421   -0.437229    0.134455    0.153625
H    -8.654213    0.764912    0.312596   -0.989993    0.193526   -0.064274
H    -8.798651    1.750228   -0.948408   -0.947284   -0.117308    0.341822
H    -9.041967    2.236724    0.479711   -0.541601   -0.523291   -0.354130
O    -6.379536    3.076634    0.826120    0.038717   -0.072022   -0.060056
O    -5.893598    1.385258   -0.534143    0.139502   -0.003785   -0.019106
H    -4.907106    1.528081   -0.538680    0.420090   -0.628265   -0.530623
8
* Frequency(16) 1407.8400
C    -8.119845    1.762269    0.007343    0.372616    0.056768    0.002780
C    -6.892704    2.210109    0.215740   -0.437229    0.134455    0.153625
H    -8.591826    0.752716    0.316646   -0.989993    0.193526   -0.064274
H    -8.738955    1.757621   -0.969949   -0.947284   -0.117308    0.341822
H    -9.007837    2.269700    0.502027   -0.541601   -0.523291   -0.354130
O    -6.381975    3.081172    0.829905    0.038717   -0.072022   -0.060056
O    -5.902389    1.385497   -0.532939    0.139502   -0.003785   -0.019106
H    -4.933579    1.567672   -0.505242    0.420090   -0.628265   -0.530623
8
* Frequency(16) 1407.8400
C    -8.153724    1.757108    0.007090    0.372616    0.056768    0.002780
C    -6.852950    2.197884    0.201772   -0.437229    0.134455    0.153625
H    -8.501814    0.735120    0.322490   -0.989993    0.193526   -0.064274
H    -8.652827    1.768287   -1.001028   -0.947284   -0.117308    0.341822
H    -8.958593    2.317279    0.534225   -0.541601   -0.523291   -0.354130
O    -6.385496    3.087721    0.835365    0.038717   -0.072022   -0.060056
O    -5.915073    1.385841   -0.531202    0.139502   -0.003785   -0.019106
H    -4.971775    1.624795   -0.456996    0.420090   -0.628265   -0.530623
8
* Frequency(16) 1407.8400
C    -8.194329    1.750922    0.006787    0.372616    0.056768    0.002780
C    -6.805304    2.183232    0.185031   -0.437229    0.134455    0.153625
H    -8.393931    0.714031    0.329494   -0.989993    0.193526   -0.064274
H    -8.549598    1.781070   -1.038277   -0.947284   -0.117308    0.341822
H    -8.899573    2.374304    0.572816   -0.541601   -0.523291   -0.354130
O    -6.389715    3.095569    0.841910    0.038717   -0.072022   -0.060056
O    -5.930275    1.386253   -0.529119    0.139502   -0.003785   -0.019106
H    -5.017553    1.693259   -0.399173    0.420090   -0.628265   -0.530623
8
* Frequency(16) 1407.8400
C    -8.237261    1.744381    0.006467    0.372616    0.056768    0.002780
C    -6.754928    2.167741    0.167331   -0.437229    0.134455    0.153625
H    -8.279868    0.691734    0.336900   -0.989993    0.193526   -0.064274
H    -8.440455    1.794586   -1.077660   -0.947284   -0.117308    0.341822
H    -8.837172    2.434595    0.613618   -0.541601   -0.523291   -0.354130
O    -6.394176    3.103867    0.848829    0.038717   -0.072022   -0.060056
O    -5.946348    1.386690   -0.526918    0.139502   -0.003785   -0.019106
H    -5.065955    1.765646   -0.338036    0.420090   -0.628265   -0.530623
8
* Frequency(16) 1407.8400
C    -8.277866    1.738195    0.006164    0.372616    0.056768    0.002780
C    -6.707281    2.153089    0.150590   -0.437229    0.134455    0.153625
H    -8.171985    0.670645    0.343904   -0.989993    0.193526   -0.064274
H    -8.337226    1.807369   -1.114910   -0.947284   -0.117308    0.341822
H    -8.778152    2.491620    0.652209   -0.541601   -0.523291   -0.354130
O    -6.398395    3.111716    0.855374    0.038717   -0.072022   -0.060056
O    -5.961550    1.387102   -0.524836    0.139502   -0.003785   -0.019106
H    -5.111733    1.834110   -0.280212    0.420090   -0.628265   -0.530623
8
* Frequency(16) 1407.8400
C    -8.311745    1.733034    0.005911    0.372616    0.056768    0.002780
C    -6.667528    2.140864    0.136622   -0.437229    0.134455    0.153625
H    -8.081973    0.653049    0.349748   -0.989993    0.193526   -0.064274
H    -8.251097    1.818035   -1.145989   -0.947284   -0.117308    0.341822
H    -8.728908    2.539199    0.684407   -0.541601   -0.523291   -0.354130
O    -6.401915    3.118264    0.860834    0.038717   -0.072022   -0.060056
O    -5.974234    1.387446   -0.523099    0.139502   -0.003785   -0.019106
H    -5.149929    1.891233   -0.231967    0.420090   -0.628265   -0.530623
8
* Frequency(16) 1407.8400
C    -8.335226    1.729456    0.005736    0.372616    0.056768    0.002780
C    -6.639975    2.132391    0.126941   -0.437229    0.134455    0.153625
H    -8.019587    0.640853    0.353798   -0.989993    0.193526   -0.064274
H    -8.191402    1.825427   -1.167530   -0.947284   -0.117308    0.341822
H    -8.694778    2.572175    0.706723   -0.541601   -0.523291   -0.354130
O    -6.404355    3.122803    0.864619    0.038717   -0.072022   -0.060056
O    -5.983025    1.387685   -0.521895    0.139502   -0.003785   -0.019106
H    -5.176402    1.930824   -0.198529    0.420090   -0.628265   -0.530623
8
* Frequency(16) 1407.8400
C    -8.345765    1.727851    0.005658    0.372616    0.056768    0.002780
C    -6.627608    2.128588    0.122596   -0.437229    0.134455    0.153625
H    -7.991586    0.635380    0.355616   -0.989993    0.193526   -0.064274
H    -8.164609    1.828745   -1.177198   -0.947284   -0.117308    0.341822
H    -8.679460    2.586976    0.716739   -0.541601   -0.523291   -0.354130
O    -6.405450    3.124840    0.866317    0.038717   -0.072022   -0.060056
O    -5.986970    1.387792   -0.521354    0.139502   -0.003785   -0.019106
H    -5.188283    1.948594   -0.183521    0.420090   -0.628265   -0.530623
8
* Frequency(16) 1407.8400
C    -8.342220    1.728391    0.005684    0.372616    0.056768    0.002780
C    -6.631768    2.129867    0.124058   -0.437229    0.134455    0.153625
H    -8.001005    0.637221    0.355004   -0.989993    0.193526   -0.064274
H    -8.173622    1.827629   -1.173945   -0.947284   -0.117308    0.341822
H    -8.684613    2.581997    0.713370   -0.541601   -0.523291   -0.354130
O    -6.405081    3.124155    0.865746    0.038717   -0.072022   -0.060056
O    -5.985643    1.387756   -0.521536    0.139502   -0.003785   -0.019106
H    -5.184286    1.942616   -0.188569    0.420090   -0.628265   -0.530623
8
* Frequency(16) 1407.8400
C    -8.324974    1.731018    0.005813    0.372616    0.056768    0.002780
C    -6.652004    2.136090    0.131168   -0.437229    0.134455    0.153625
H    -8.046824    0.646178    0.352030   -0.989993    0.193526   -0.064274
H    -8.217464    1.822200   -1.158125   -0.947284   -0.117308    0.341822
H    -8.709679    2.557778    0.696980   -0.541601   -0.523291   -0.354130
O    -6.403290    3.120821    0.862967    0.038717   -0.072022   -0.060056
O    -5.979187    1.387581   -0.522420    0.139502   -0.003785   -0.019106
H    -5.164844    1.913539   -0.213128    0.420090   -0.628265   -0.530623
8
* Frequency(16) 1407.8400
C    -8.295898    1.735448    0.006030    0.372616    0.056768    0.002780
C    -6.686123    2.146582    0.143155   -0.437229    0.134455    0.153625
H    -8.124077    0.661279    0.347014   -0.989993    0.193526   -0.064274
H    -8.291384    1.813046   -1.131452   -0.947284   -0.117308    0.341822
H    -8.751942    2.516944    0.669346   -0.541601   -0.523291   -0.354130
O    -6.400268    3.115201    0.858280    0.038717   -0.072022   -0.060056
O    -5.968301    1.387285   -0.523911    0.139502   -0.003785   -0.019106
H    -5.132063    1.864513   -0.254534    0.420090   -0.628265   -0.530623
8
* Frequency(16) 1407.8400
C    -8.258141    1.741200    0.006311    0.372616    0.056768    0.002780
C    -6.730427    2.160206    0.158722   -0.437229    0.134455    0.153625
H    -8.224392    0.680889    0.340501   -0.989993    0.193526   -0.064274
H    -8.387372    1.801159   -1.096815   -0.947284   -0.117308    0.341822
H    -8.806822    2.463919    0.633462   -0.541601   -0.523291   -0.354130
O    -6.396345    3.107903    0.852195    0.038717   -0.072022   -0.060056
O    -5.954165    1.386902   -0.525847    0.139502   -0.003785   -0.019106
H    -5.089495    1.800851   -0.308302    0.420090   -0.628265   -0.530623
8
* Frequency(16) 1407.8400
C    -8.215795    1.747651    0.006627    0.372616    0.056768    0.002780
C    -6.780116    2.175487    0.176181   -0.437229    0.134455    0.153625
H    -8.336900    0.702882    0.333197   -0.989993    0.193526   -0.064274
H    -8.495026    1.787828   -1.057969   -0.947284   -0.117308    0.341822
H    -8.868373    2.404449    0.593217   -0.541601   -0.523291   -0.354130
O    -6.391945    3.099718    0.845370    0.038717   -0.072022   -0.060056
O    -5.938312    1.386471   -0.528019    0.139502   -0.003785   -0.019106
H    -5.041754    1.729452   -0.368604    0.420090   -0.628265   -0.530623
