8
* (null), Energy   -1000.0000000
C    -8.215795    1.747651    0.006627    0.136885    0.088485    0.053370
C    -6.780116    2.175487    0.176181    0.305125   -0.087091   -0.102462
H    -8.336900    0.702882    0.333197   -0.837360   -0.005216   -0.520622
H    -8.495026    1.787828   -1.057969   -0.747783   -0.595003    0.233151
H    -8.868373    2.404449    0.593217   -0.783555   -0.502911   -0.300375
O    -6.391945    3.099718    0.845370   -0.037625    0.043733    0.038136
O    -5.938312    1.386471   -0.528019   -0.117539   -0.017109    0.000494
H    -5.041754    1.729452   -0.368604   -0.435386    0.663931    0.559666
8
* Frequency(15) 1337.0756
C    -8.200239    1.757707    0.012693    0.136885    0.088485    0.053370
C    -6.745440    2.165589    0.164537    0.305125   -0.087091   -0.102462
H    -8.432062    0.702290    0.274031   -0.837360   -0.005216   -0.520622
H    -8.580008    1.720209   -1.031472   -0.747783   -0.595003    0.233151
H    -8.957420    2.347296    0.559081   -0.783555   -0.502911   -0.300375
O    -6.396221    3.104688    0.849704   -0.037625    0.043733    0.038136
O    -5.951669    1.384527   -0.527963   -0.117539   -0.017109    0.000494
H    -5.091233    1.804905   -0.305001   -0.435386    0.663931    0.559666
8
* Frequency(15) 1337.0756
C    -8.186368    1.766674    0.018101    0.136885    0.088485    0.053370
C    -6.714522    2.156764    0.154154    0.305125   -0.087091   -0.102462
H    -8.516911    0.701761    0.221277   -0.837360   -0.005216   -0.520622
H    -8.655781    1.659917   -1.007847   -0.747783   -0.595003    0.233151
H    -9.036817    2.296336    0.528644   -0.783555   -0.502911   -0.300375
O    -6.400034    3.109120    0.853568   -0.037625    0.043733    0.038136
O    -5.963579    1.382793   -0.527912   -0.117539   -0.017109    0.000494
H    -5.135351    1.872181   -0.248291   -0.435386    0.663931    0.559666
8
* Frequency(15) 1337.0756
C    -8.175686    1.773578    0.022265    0.136885    0.088485    0.053370
C    -6.690712    2.149968    0.146159    0.305125   -0.087091   -0.102462
H    -8.582253    0.701354    0.180650   -0.837360   -0.005216   -0.520622
H    -8.714133    1.613487   -0.989654   -0.747783   -0.595003    0.233151
H    -9.097961    2.257092    0.505205   -0.783555   -0.502911   -0.300375
O    -6.402970    3.112533    0.856544   -0.037625    0.043733    0.038136
O    -5.972751    1.381458   -0.527874   -0.117539   -0.017109    0.000494
H    -5.169326    1.923990   -0.204618   -0.435386    0.663931    0.559666
8
* Frequency(15) 1337.0756
C    -8.169351    1.777674    0.024735    0.136885    0.088485    0.053370
C    -6.676590    2.145937    0.141417    0.305125   -0.087091   -0.102462
H    -8.621008    0.701113    0.156555   -0.837360   -0.005216   -0.520622
H    -8.748742    1.585949   -0.978863   -0.747783   -0.595003    0.233151
H    -9.134225    2.233817    0.491303   -0.783555   -0.502911   -0.300375
O    -6.404711    3.114557    0.858309   -0.037625    0.043733    0.038136
O    -5.978191    1.380667   -0.527851   -0.117539   -0.017109    0.000494
H    -5.189476    1.954718   -0.178715   -0.435386    0.663931    0.559666
8
* Frequency(15) 1337.0756
C    -8.168049    1.778516    0.025243    0.136885    0.088485    0.053370
C    -6.673687    2.145109    0.140442    0.305125   -0.087091   -0.102462
H    -8.628975    0.701063    0.151602   -0.837360   -0.005216   -0.520622
H    -8.755857    1.580288   -0.976645   -0.747783   -0.595003    0.233151
H    -9.141680    2.229032    0.488445   -0.783555   -0.502911   -0.300375
O    -6.405069    3.114973    0.858672   -0.037625    0.043733    0.038136
O    -5.979310    1.380504   -0.527846   -0.117539   -0.017109    0.000494
H    -5.193618    1.961035   -0.173390   -0.435386    0.663931    0.559666
8
* Frequency(15) 1337.0756
C    -8.171920    1.776013    0.023734    0.136885    0.088485    0.053370
C    -6.682317    2.147572    0.143340    0.305125   -0.087091   -0.102462
H    -8.605291    0.701210    0.166327   -0.837360   -0.005216   -0.520622
H    -8.734706    1.597117   -0.983239   -0.747783   -0.595003    0.233151
H    -9.119518    2.243256    0.496941   -0.783555   -0.502911   -0.300375
O    -6.404005    3.113736    0.857593   -0.037625    0.043733    0.038136
O    -5.975985    1.380988   -0.527860   -0.117539   -0.017109    0.000494
H    -5.181304    1.942256   -0.189220   -0.435386    0.663931    0.559666
8
* Frequency(15) 1337.0756
C    -8.180547    1.770437    0.020370    0.136885    0.088485    0.053370
C    -6.701545    2.153060    0.149797    0.305125   -0.087091   -0.102462
H    -8.552523    0.701539    0.199135   -0.837360   -0.005216   -0.520622
H    -8.687583    1.634613   -0.997932   -0.747783   -0.595003    0.233151
H    -9.070141    2.274948    0.515869   -0.783555   -0.502911   -0.300375
O    -6.401634    3.110980    0.855190   -0.037625    0.043733    0.038136
O    -5.968578    1.382066   -0.527891   -0.117539   -0.017109    0.000494
H    -5.153867    1.900417   -0.224489   -0.435386    0.663931    0.559666
8
* Frequency(15) 1337.0756
C    -8.192992    1.762391    0.015518    0.136885    0.088485    0.053370
C    -6.729288    2.160979    0.159113    0.305125   -0.087091   -0.102462
H    -8.476389    0.702013    0.246471   -0.837360   -0.005216   -0.520622
H    -8.619593    1.688711   -1.019130   -0.747783   -0.595003    0.233151
H    -8.998898    2.320674    0.543180   -0.783555   -0.502911   -0.300375
O    -6.398213    3.107004    0.851722   -0.037625    0.043733    0.038136
O    -5.957891    1.383621   -0.527936   -0.117539   -0.017109    0.000494
H    -5.114281    1.840051   -0.275374   -0.435386    0.663931    0.559666
8
* Frequency(15) 1337.0756
C    -8.207909    1.752749    0.009702    0.136885    0.088485    0.053370
C    -6.762538    2.170469    0.170278    0.305125   -0.087091   -0.102462
H    -8.385139    0.702582    0.303205   -0.837360   -0.005216   -0.520622
H    -8.538105    1.753551   -1.044537   -0.747783   -0.595003    0.233151
H    -8.913512    2.375478    0.575913   -0.783555   -0.502911   -0.300375
O    -6.394113    3.102238    0.847567   -0.037625    0.043733    0.038136
O    -5.945083    1.385486   -0.527990   -0.117539   -0.017109    0.000494
H    -5.066836    1.767700   -0.336363   -0.435386    0.663931    0.559666
8
* Frequency(15) 1337.0756
C    -8.223680    1.742554    0.003553    0.136885    0.088485    0.053370
C    -6.797693    2.180504    0.182084    0.305125   -0.087091   -0.102462
H    -8.288661    0.703183    0.363189   -0.837360   -0.005216   -0.520622
H    -8.451948    1.822105   -1.071400   -0.747783   -0.595003    0.233151
H    -8.823233    2.433421    0.610521   -0.783555   -0.502911   -0.300375
O    -6.389778    3.097199    0.843173   -0.037625    0.043733    0.038136
O    -5.931540    1.387457   -0.528047   -0.117539   -0.017109    0.000494
H    -5.016672    1.691205   -0.400846   -0.435386    0.663931    0.559666
8
* Frequency(15) 1337.0756
C    -8.238597    1.732911   -0.002263    0.136885    0.088485    0.053370
C    -6.830944    2.189994    0.193249    0.305125   -0.087091   -0.102462
H    -8.197411    0.703751    0.419923   -0.837360   -0.005216   -0.520622
H    -8.370459    1.886944   -1.096807   -0.747783   -0.595003    0.233151
H    -8.737847    2.488225    0.643254   -0.783555   -0.502911   -0.300375
O    -6.385678    3.092433    0.839017   -0.037625    0.043733    0.038136
O    -5.918732    1.389321   -0.528101   -0.117539   -0.017109    0.000494
H    -4.969227    1.618854   -0.461834   -0.435386    0.663931    0.559666
8
* Frequency(15) 1337.0756
C    -8.251043    1.724866   -0.007116    0.136885    0.088485    0.053370
C    -6.858686    2.197913    0.202565    0.305125   -0.087091   -0.102462
H    -8.121277    0.704226    0.467259   -0.837360   -0.005216   -0.520622
H    -8.302470    1.941043   -1.118006   -0.747783   -0.595003    0.233151
H    -8.666604    2.533951    0.670565   -0.783555   -0.502911   -0.300375
O    -6.382257    3.088457    0.835550   -0.037625    0.043733    0.038136
O    -5.908045    1.390877   -0.528146   -0.117539   -0.017109    0.000494
H    -4.929641    1.558488   -0.512720   -0.435386    0.663931    0.559666
8
* Frequency(15) 1337.0756
C    -8.259669    1.719290   -0.010479    0.136885    0.088485    0.053370
C    -6.877915    2.203401    0.209022    0.305125   -0.087091   -0.102462
H    -8.068509    0.704554    0.500067   -0.837360   -0.005216   -0.520622
H    -8.255346    1.978539   -1.132699   -0.747783   -0.595003    0.233151
H    -8.617227    2.565643    0.689493   -0.783555   -0.502911   -0.300375
O    -6.379886    3.085701    0.833146   -0.037625    0.043733    0.038136
O    -5.900638    1.391955   -0.528177   -0.117539   -0.017109    0.000494
H    -4.902204    1.516649   -0.547989   -0.435386    0.663931    0.559666
8
* Frequency(15) 1337.0756
C    -8.263541    1.716787   -0.011989    0.136885    0.088485    0.053370
C    -6.886545    2.205864    0.211920    0.305125   -0.087091   -0.102462
H    -8.044825    0.704702    0.514793   -0.837360   -0.005216   -0.520622
H    -8.234196    1.995368   -1.139293   -0.747783   -0.595003    0.233151
H    -8.595065    2.579867    0.697989   -0.783555   -0.502911   -0.300375
O    -6.378821    3.084464    0.832068   -0.037625    0.043733    0.038136
O    -5.897313    1.392439   -0.528191   -0.117539   -0.017109    0.000494
H    -4.889890    1.497870   -0.563818   -0.435386    0.663931    0.559666
8
* Frequency(15) 1337.0756
C    -8.262238    1.717629   -0.011481    0.136885    0.088485    0.053370
C    -6.883642    2.205036    0.210945    0.305125   -0.087091   -0.102462
H    -8.052792    0.704652    0.509839   -0.837360   -0.005216   -0.520622
H    -8.241311    1.989707   -1.137075   -0.747783   -0.595003    0.233151
H    -8.602520    2.575082    0.695131   -0.783555   -0.502911   -0.300375
O    -6.379179    3.084880    0.832431   -0.037625    0.043733    0.038136
O    -5.898432    1.392276   -0.528186   -0.117539   -0.017109    0.000494
H    -4.894032    1.504187   -0.558493   -0.435386    0.663931    0.559666
8
* Frequency(15) 1337.0756
C    -8.255903    1.721724   -0.009011    0.136885    0.088485    0.053370
C    -6.869520    2.201005    0.206203    0.305125   -0.087091   -0.102462
H    -8.091546    0.704411    0.485744   -0.837360   -0.005216   -0.520622
H    -8.275920    1.962169   -1.126284   -0.747783   -0.595003    0.233151
H    -8.638784    2.551806    0.681229   -0.783555   -0.502911   -0.300375
O    -6.380921    3.086904    0.834196   -0.037625    0.043733    0.038136
O    -5.903872    1.391485   -0.528164   -0.117539   -0.017109    0.000494
H    -4.914182    1.534915   -0.532591   -0.435386    0.663931    0.559666
8
* Frequency(15) 1337.0756
C    -8.245222    1.728629   -0.004846    0.136885    0.088485    0.053370
C    -6.845710    2.194209    0.198208    0.305125   -0.087091   -0.102462
H    -8.156889    0.704004    0.445118   -0.837360   -0.005216   -0.520622
H    -8.334272    1.915738   -1.108090   -0.747783   -0.595003    0.233151
H    -8.699928    2.512562    0.657790   -0.783555   -0.502911   -0.300375
O    -6.383857    3.090317    0.837171   -0.037625    0.043733    0.038136
O    -5.913044    1.390149   -0.528125   -0.117539   -0.017109    0.000494
H    -4.948157    1.586724   -0.488918   -0.435386    0.663931    0.559666
8
* Frequency(15) 1337.0756
C    -8.231351    1.737596    0.000562    0.136885    0.088485    0.053370
C    -6.814792    2.185384    0.187825    0.305125   -0.087091   -0.102462
H    -8.241738    0.703475    0.392363   -0.837360   -0.005216   -0.520622
H    -8.410045    1.855447   -1.084465   -0.747783   -0.595003    0.233151
H    -8.779326    2.461603    0.627353   -0.783555   -0.502911   -0.300375
O    -6.387669    3.094748    0.841036   -0.037625    0.043733    0.038136
O    -5.924954    1.388416   -0.528075   -0.117539   -0.017109    0.000494
H    -4.992275    1.654000   -0.432208   -0.435386    0.663931    0.559666
8
* Frequency(15) 1337.0756
C    -8.215795    1.747651    0.006627    0.136885    0.088485    0.053370
C    -6.780116    2.175487    0.176181    0.305125   -0.087091   -0.102462
H    -8.336900    0.702882    0.333197   -0.837360   -0.005216   -0.520622
H    -8.495026    1.787828   -1.057969   -0.747783   -0.595003    0.233151
H    -8.868373    2.404449    0.593217   -0.783555   -0.502911   -0.300375
O    -6.391945    3.099718    0.845370   -0.037625    0.043733    0.038136
O    -5.938312    1.386471   -0.528019   -0.117539   -0.017109    0.000494
H    -5.041754    1.729452   -0.368604   -0.435386    0.663931    0.559666
