8
* (null), Energy   -1000.0000000
C    -8.215795    1.747651    0.006627   -0.063772    0.257296    0.205990
C    -6.780116    2.175487    0.176181   -0.124986    0.012030    0.023060
H    -8.336900    0.702882    0.333197    0.904834   -0.026517   -0.328747
H    -8.495026    1.787828   -1.057969    0.923384   -0.229034   -0.075415
H    -8.868373    2.404449    0.593217   -1.229177   -0.510545   -0.254096
O    -6.391945    3.099718    0.845370   -0.051677   -0.045743   -0.029522
O    -5.938312    1.386471   -0.528019    0.159098   -0.126162   -0.115329
H    -5.041754    1.729452   -0.368604   -0.054841    0.285381    0.228045
8
* Frequency(12)  992.1032
C    -8.223042    1.776892    0.030037   -0.063772    0.257296    0.205990
C    -6.794320    2.176854    0.178802   -0.124986    0.012030    0.023060
H    -8.234070    0.699869    0.295837    0.904834   -0.026517   -0.328747
H    -8.390089    1.761799   -1.066539    0.923384   -0.229034   -0.075415
H    -9.008062    2.346429    0.564340   -1.229177   -0.510545   -0.254096
O    -6.397818    3.094520    0.842015   -0.051677   -0.045743   -0.029522
O    -5.920231    1.372134   -0.541125    0.159098   -0.126162   -0.115329
H    -5.047986    1.761885   -0.342688   -0.054841    0.285381    0.228045
8
* Frequency(12)  992.1032
C    -8.229504    1.802963    0.050910   -0.063772    0.257296    0.205990
C    -6.806985    2.178073    0.181138   -0.124986    0.012030    0.023060
H    -8.142384    0.697182    0.262525    0.904834   -0.026517   -0.328747
H    -8.296522    1.738591   -1.074181    0.923384   -0.229034   -0.075415
H    -9.132614    2.294695    0.538593   -1.229177   -0.510545   -0.254096
O    -6.403054    3.089885    0.839023   -0.051677   -0.045743   -0.029522
O    -5.904110    1.359350   -0.552811    0.159098   -0.126162   -0.115329
H    -5.053543    1.790802   -0.319581   -0.054841    0.285381    0.228045
8
* Frequency(12)  992.1032
C    -8.234481    1.823041    0.066984   -0.063772    0.257296    0.205990
C    -6.816738    2.179011    0.182938   -0.124986    0.012030    0.023060
H    -8.071776    0.695113    0.236872    0.904834   -0.026517   -0.328747
H    -8.224467    1.720719   -1.080066    0.923384   -0.229034   -0.075415
H    -9.228532    2.254856    0.518765   -1.229177   -0.510545   -0.254096
O    -6.407087    3.086315    0.836719   -0.051677   -0.045743   -0.029522
O    -5.891695    1.349505   -0.561811    0.159098   -0.126162   -0.115329
H    -5.057823    1.813072   -0.301785   -0.054841    0.285381    0.228045
8
* Frequency(12)  992.1032
C    -8.237432    1.834949    0.076518   -0.063772    0.257296    0.205990
C    -6.822522    2.179568    0.184005   -0.124986    0.012030    0.023060
H    -8.029899    0.693886    0.221656    0.904834   -0.026517   -0.328747
H    -8.181731    1.710119   -1.083556    0.923384   -0.229034   -0.075415
H    -9.285420    2.231227    0.507005   -1.229177   -0.510545   -0.254096
O    -6.409479    3.084198    0.835353   -0.051677   -0.045743   -0.029522
O    -5.884331    1.343666   -0.567149    0.159098   -0.126162   -0.115329
H    -5.060361    1.826280   -0.291231   -0.054841    0.285381    0.228045
8
* Frequency(12)  992.1032
C    -8.238039    1.837397    0.078478   -0.063772    0.257296    0.205990
C    -6.823712    2.179683    0.184224   -0.124986    0.012030    0.023060
H    -8.021290    0.693633    0.218529    0.904834   -0.026517   -0.328747
H    -8.172946    1.707940   -1.084274    0.923384   -0.229034   -0.075415
H    -9.297115    2.226369    0.504587   -1.229177   -0.510545   -0.254096
O    -6.409970    3.083763    0.835072   -0.051677   -0.045743   -0.029522
O    -5.882817    1.342466   -0.568246    0.159098   -0.126162   -0.115329
H    -5.060883    1.828995   -0.289061   -0.054841    0.285381    0.228045
8
* Frequency(12)  992.1032
C    -8.236235    1.830120    0.072651   -0.063772    0.257296    0.205990
C    -6.820176    2.179342    0.183572   -0.124986    0.012030    0.023060
H    -8.046882    0.694383    0.227827    0.904834   -0.026517   -0.328747
H    -8.199063    1.714418   -1.082141    0.923384   -0.229034   -0.075415
H    -9.262349    2.240809    0.511774   -1.229177   -0.510545   -0.254096
O    -6.408509    3.085057    0.835907   -0.051677   -0.045743   -0.029522
O    -5.887317    1.346034   -0.564984    0.159098   -0.126162   -0.115329
H    -5.059332    1.820923   -0.295511   -0.054841    0.285381    0.228045
8
* Frequency(12)  992.1032
C    -8.232216    1.813906    0.059670   -0.063772    0.257296    0.205990
C    -6.812300    2.178584    0.182119   -0.124986    0.012030    0.023060
H    -8.103902    0.696054    0.248544    0.904834   -0.026517   -0.328747
H    -8.257252    1.728851   -1.077388    0.923384   -0.229034   -0.075415
H    -9.184890    2.272982    0.527786   -1.229177   -0.510545   -0.254096
O    -6.405252    3.087939    0.837768   -0.051677   -0.045743   -0.029522
O    -5.897343    1.353984   -0.557716    0.159098   -0.126162   -0.115329
H    -5.055876    1.802939   -0.309882   -0.054841    0.285381    0.228045
8
* Frequency(12)  992.1032
C    -8.226418    1.790512    0.040941   -0.063772    0.257296    0.205990
C    -6.800936    2.177490    0.180022   -0.124986    0.012030    0.023060
H    -8.186171    0.698465    0.278434    0.904834   -0.026517   -0.328747
H    -8.341208    1.749675   -1.070532    0.923384   -0.229034   -0.075415
H    -9.073131    2.319402    0.550889   -1.229177   -0.510545   -0.254096
O    -6.400554    3.092098    0.840452   -0.051677   -0.045743   -0.029522
O    -5.911809    1.365455   -0.547230    0.159098   -0.126162   -0.115329
H    -5.050890    1.776992   -0.330616   -0.054841    0.285381    0.228045
8
* Frequency(12)  992.1032
C    -8.219469    1.762474    0.018494   -0.063772    0.257296    0.205990
C    -6.787316    2.176180    0.177509   -0.124986    0.012030    0.023060
H    -8.284774    0.701355    0.314259    0.904834   -0.026517   -0.328747
H    -8.441832    1.774634   -1.062313    0.923384   -0.229034   -0.075415
H    -8.939183    2.375038    0.578579   -1.229177   -0.510545   -0.254096
O    -6.394922    3.097083    0.843669   -0.051677   -0.045743   -0.029522
O    -5.929146    1.379204   -0.534663    0.159098   -0.126162   -0.115329
H    -5.044913    1.745893   -0.355467   -0.054841    0.285381    0.228045
8
* Frequency(12)  992.1032
C    -8.212121    1.732829   -0.005239   -0.063772    0.257296    0.205990
C    -6.772916    2.174794    0.174852   -0.124986    0.012030    0.023060
H    -8.389026    0.704410    0.352136    0.904834   -0.026517   -0.328747
H    -8.548221    1.801022   -1.053624    0.923384   -0.229034   -0.075415
H    -8.797562    2.433861    0.607855   -1.229177   -0.510545   -0.254096
O    -6.388968    3.102354    0.847070   -0.051677   -0.045743   -0.029522
O    -5.947477    1.393739   -0.521375    0.159098   -0.126162   -0.115329
H    -5.038595    1.713012   -0.381742   -0.054841    0.285381    0.228045
8
* Frequency(12)  992.1032
C    -8.205172    1.704791   -0.027687   -0.063772    0.257296    0.205990
C    -6.759295    2.173483    0.172339   -0.124986    0.012030    0.023060
H    -8.487629    0.707300    0.387960    0.904834   -0.026517   -0.328747
H    -8.648845    1.825981   -1.045406    0.923384   -0.229034   -0.075415
H    -8.663614    2.489497    0.635545   -1.229177   -0.510545   -0.254096
O    -6.383337    3.107338    0.850288   -0.051677   -0.045743   -0.029522
O    -5.964814    1.407488   -0.508807    0.159098   -0.126162   -0.115329
H    -5.032618    1.681913   -0.406593   -0.054841    0.285381    0.228045
8
* Frequency(12)  992.1032
C    -8.199373    1.681397   -0.046416   -0.063772    0.257296    0.205990
C    -6.747931    2.172389    0.170243   -0.124986    0.012030    0.023060
H    -8.569898    0.709711    0.417851    0.904834   -0.026517   -0.328747
H    -8.732801    1.846805   -1.038549    0.923384   -0.229034   -0.075415
H    -8.551855    2.535916    0.658648   -1.229177   -0.510545   -0.254096
O    -6.378638    3.111497    0.852972   -0.051677   -0.045743   -0.029522
O    -5.979280    1.418959   -0.498321    0.159098   -0.126162   -0.115329
H    -5.027632    1.655966   -0.427327   -0.054841    0.285381    0.228045
8
* Frequency(12)  992.1032
C    -8.195354    1.665183   -0.059397   -0.063772    0.257296    0.205990
C    -6.740055    2.171631    0.168790   -0.124986    0.012030    0.023060
H    -8.626918    0.711382    0.438567    0.904834   -0.026517   -0.328747
H    -8.790990    1.861238   -1.033797    0.923384   -0.229034   -0.075415
H    -8.474396    2.568089    0.674660   -1.229177   -0.510545   -0.254096
O    -6.375382    3.114380    0.854832   -0.051677   -0.045743   -0.029522
O    -5.989306    1.426909   -0.491054    0.159098   -0.126162   -0.115329
H    -5.024176    1.637982   -0.441698   -0.054841    0.285381    0.228045
8
* Frequency(12)  992.1032
C    -8.193551    1.657905   -0.065223   -0.063772    0.257296    0.205990
C    -6.736520    2.171290    0.168137   -0.124986    0.012030    0.023060
H    -8.652510    0.712132    0.447866    0.904834   -0.026517   -0.328747
H    -8.817107    1.867716   -1.031664    0.923384   -0.229034   -0.075415
H    -8.439630    2.582530    0.681847   -1.229177   -0.510545   -0.254096
O    -6.373920    3.115674    0.855667   -0.051677   -0.045743   -0.029522
O    -5.993806    1.430477   -0.487792    0.159098   -0.126162   -0.115329
H    -5.022625    1.629910   -0.448148   -0.054841    0.285381    0.228045
8
* Frequency(12)  992.1032
C    -8.194157    1.660353   -0.063263   -0.063772    0.257296    0.205990
C    -6.737709    2.171405    0.168357   -0.124986    0.012030    0.023060
H    -8.643901    0.711879    0.444738    0.904834   -0.026517   -0.328747
H    -8.808322    1.865537   -1.032381    0.923384   -0.229034   -0.075415
H    -8.451325    2.577672    0.679429   -1.229177   -0.510545   -0.254096
O    -6.374412    3.115239    0.855386   -0.051677   -0.045743   -0.029522
O    -5.992292    1.429277   -0.488889    0.159098   -0.126162   -0.115329
H    -5.023147    1.632625   -0.445978   -0.054841    0.285381    0.228045
8
* Frequency(12)  992.1032
C    -8.197109    1.672262   -0.053730   -0.063772    0.257296    0.205990
C    -6.743494    2.171962    0.169424   -0.124986    0.012030    0.023060
H    -8.602024    0.710652    0.429523    0.904834   -0.026517   -0.328747
H    -8.765586    1.854937   -1.035871    0.923384   -0.229034   -0.075415
H    -8.508213    2.554043    0.667669   -1.229177   -0.510545   -0.254096
O    -6.376803    3.113122    0.854020   -0.051677   -0.045743   -0.029522
O    -5.984928    1.423438   -0.494226    0.159098   -0.126162   -0.115329
H    -5.025685    1.645833   -0.435424   -0.054841    0.285381    0.228045
8
* Frequency(12)  992.1032
C    -8.202085    1.692339   -0.037655   -0.063772    0.257296    0.205990
C    -6.753247    2.172900    0.171223   -0.124986    0.012030    0.023060
H    -8.531416    0.708583    0.403869    0.904834   -0.026517   -0.328747
H    -8.693530    1.837064   -1.041756    0.923384   -0.229034   -0.075415
H    -8.604131    2.514203    0.647841   -1.229177   -0.510545   -0.254096
O    -6.380836    3.109552    0.851716   -0.051677   -0.045743   -0.029522
O    -5.972513    1.413593   -0.503226    0.159098   -0.126162   -0.115329
H    -5.029965    1.668103   -0.417628   -0.054841    0.285381    0.228045
8
* Frequency(12)  992.1032
C    -8.208547    1.718411   -0.016782   -0.063772    0.257296    0.205990
C    -6.765912    2.174119    0.173560   -0.124986    0.012030    0.023060
H    -8.439730    0.705896    0.370558    0.904834   -0.026517   -0.328747
H    -8.599964    1.813856   -1.049398    0.923384   -0.229034   -0.075415
H    -8.728683    2.462470    0.622094   -1.229177   -0.510545   -0.254096
O    -6.386072    3.104917    0.848725   -0.051677   -0.045743   -0.029522
O    -5.956392    1.400809   -0.514912    0.159098   -0.126162   -0.115329
H    -5.035522    1.697020   -0.394521   -0.054841    0.285381    0.228045
8
* Frequency(12)  992.1032
C    -8.215795    1.747651    0.006627   -0.063772    0.257296    0.205990
C    -6.780116    2.175487    0.176181   -0.124986    0.012030    0.023060
H    -8.336900    0.702882    0.333197    0.904834   -0.026517   -0.328747
H    -8.495026    1.787828   -1.057969    0.923384   -0.229034   -0.075415
H    -8.868373    2.404449    0.593217   -1.229177   -0.510545   -0.254096
O    -6.391945    3.099718    0.845370   -0.051677   -0.045743   -0.029522
O    -5.938312    1.386471   -0.528019    0.159098   -0.126162   -0.115329
H    -5.041754    1.729452   -0.368604   -0.054841    0.285381    0.228045
