8
* (null), Energy   -1000.0000000
C    -8.215795    1.747651    0.006627   -0.008607    0.064169   -0.083341
C    -6.780116    2.175487    0.176181   -0.005130    0.030566   -0.038807
H    -8.336900    0.702882    0.333197   -0.797121    0.304825    0.470057
H    -8.495026    1.787828   -1.057969    0.814548   -0.423480   -0.294129
H    -8.868373    2.404449    0.593217    0.125956   -0.892452    1.137931
O    -6.391945    3.099718    0.845370    0.000378   -0.002801    0.003192
O    -5.938312    1.386471   -0.528019    0.000743   -0.003720    0.004637
H    -5.041754    1.729452   -0.368604    0.002500   -0.014227    0.017344
8
* Frequency(18) 1448.3930
C    -8.216773    1.754944   -0.002844   -0.008607    0.064169   -0.083341
C    -6.780699    2.178960    0.171771   -0.005130    0.030566   -0.038807
H    -8.427489    0.737524    0.386617   -0.797121    0.304825    0.470057
H    -8.402457    1.739702   -1.091395    0.814548   -0.423480   -0.294129
H    -8.854058    2.303027    0.722537    0.125956   -0.892452    1.137931
O    -6.391902    3.099400    0.845732    0.000378   -0.002801    0.003192
O    -5.938227    1.386049   -0.527492    0.000743   -0.003720    0.004637
H    -5.041470    1.727836   -0.366633    0.002500   -0.014227    0.017344
8
* Frequency(18) 1448.3930
C    -8.217645    1.761446   -0.011289   -0.008607    0.064169   -0.083341
C    -6.781219    2.182057    0.167838   -0.005130    0.030566   -0.038807
H    -8.508261    0.768412    0.434247   -0.797121    0.304825    0.470057
H    -8.319919    1.696791   -1.121199    0.814548   -0.423480   -0.294129
H    -8.841295    2.212595    0.837843    0.125956   -0.892452    1.137931
O    -6.391864    3.099116    0.846056    0.000378   -0.002801    0.003192
O    -5.938152    1.385672   -0.527022    0.000743   -0.003720    0.004637
H    -5.041216    1.726394   -0.364876    0.002500   -0.014227    0.017344
8
* Frequency(18) 1448.3930
C    -8.218317    1.766453   -0.017792   -0.008607    0.064169   -0.083341
C    -6.781619    2.184443    0.164810   -0.005130    0.030566   -0.038807
H    -8.570463    0.792199    0.470928   -0.797121    0.304825    0.470057
H    -8.256357    1.663745   -1.144151    0.814548   -0.423480   -0.294129
H    -8.831466    2.142954    0.926640    0.125956   -0.892452    1.137931
O    -6.391834    3.098898    0.846305    0.000378   -0.002801    0.003192
O    -5.938094    1.385382   -0.526660    0.000743   -0.003720    0.004637
H    -5.041021    1.725284   -0.363523    0.002500   -0.014227    0.017344
8
* Frequency(18) 1448.3930
C    -8.218715    1.769423   -0.021649   -0.008607    0.064169   -0.083341
C    -6.781856    2.185857    0.163014   -0.005130    0.030566   -0.038807
H    -8.607355    0.806306    0.492683   -0.797121    0.304825    0.470057
H    -8.218658    1.644145   -1.157764    0.814548   -0.423480   -0.294129
H    -8.825637    2.101649    0.979306    0.125956   -0.892452    1.137931
O    -6.391817    3.098768    0.846453    0.000378   -0.002801    0.003192
O    -5.938059    1.385209   -0.526445    0.000743   -0.003720    0.004637
H    -5.040906    1.724625   -0.362720    0.002500   -0.014227    0.017344
8
* Frequency(18) 1448.3930
C    -8.218797    1.770034   -0.022442   -0.008607    0.064169   -0.083341
C    -6.781905    2.186148    0.162645   -0.005130    0.030566   -0.038807
H    -8.614939    0.809207    0.497155   -0.797121    0.304825    0.470057
H    -8.210908    1.640116   -1.160562    0.814548   -0.423480   -0.294129
H    -8.824438    2.093158    0.990132    0.125956   -0.892452    1.137931
O    -6.391813    3.098741    0.846483    0.000378   -0.002801    0.003192
O    -5.938052    1.385174   -0.526401    0.000743   -0.003720    0.004637
H    -5.040882    1.724490   -0.362555    0.002500   -0.014227    0.017344
8
* Frequency(18) 1448.3930
C    -8.218554    1.768219   -0.020085   -0.008607    0.064169   -0.083341
C    -6.781760    2.185284    0.163743   -0.005130    0.030566   -0.038807
H    -8.592394    0.800585    0.483860   -0.797121    0.304825    0.470057
H    -8.233947    1.652094   -1.152243    0.814548   -0.423480   -0.294129
H    -8.828001    2.118400    0.957947    0.125956   -0.892452    1.137931
O    -6.391824    3.098821    0.846393    0.000378   -0.002801    0.003192
O    -5.938073    1.385279   -0.526532    0.000743   -0.003720    0.004637
H    -5.040953    1.724892   -0.363045    0.002500   -0.014227    0.017344
8
* Frequency(18) 1448.3930
C    -8.218011    1.764175   -0.014833   -0.008607    0.064169   -0.083341
C    -6.781437    2.183357    0.166188   -0.005130    0.030566   -0.038807
H    -8.542161    0.781376    0.454238   -0.797121    0.304825    0.470057
H    -8.285277    1.678780   -1.133708    0.814548   -0.423480   -0.294129
H    -8.835938    2.174640    0.886238    0.125956   -0.892452    1.137931
O    -6.391848    3.098997    0.846192    0.000378   -0.002801    0.003192
O    -5.938120    1.385514   -0.526825    0.000743   -0.003720    0.004637
H    -5.041110    1.725789   -0.364138    0.002500   -0.014227    0.017344
8
* Frequency(18) 1448.3930
C    -8.217229    1.758341   -0.007256   -0.008607    0.064169   -0.083341
C    -6.780970    2.180578    0.169716   -0.005130    0.030566   -0.038807
H    -8.469686    0.753661    0.411500   -0.797121    0.304825    0.470057
H    -8.359338    1.717284   -1.106965    0.814548   -0.423480   -0.294129
H    -8.847391    2.255783    0.782775    0.125956   -0.892452    1.137931
O    -6.391882    3.099252    0.845901    0.000378   -0.002801    0.003192
O    -5.938188    1.385852   -0.527246    0.000743   -0.003720    0.004637
H    -5.041337    1.727082   -0.365715    0.002500   -0.014227    0.017344
8
* Frequency(18) 1448.3930
C    -8.216291    1.751348    0.001826   -0.008607    0.064169   -0.083341
C    -6.780411    2.177247    0.173945   -0.005130    0.030566   -0.038807
H    -8.382821    0.720443    0.360276   -0.797121    0.304825    0.470057
H    -8.448102    1.763432   -1.074913    0.814548   -0.423480   -0.294129
H    -8.861116    2.353037    0.658771    0.125956   -0.892452    1.137931
O    -6.391923    3.099557    0.845554    0.000378   -0.002801    0.003192
O    -5.938269    1.386257   -0.527752    0.000743   -0.003720    0.004637
H    -5.041610    1.728633   -0.367605    0.002500   -0.014227    0.017344
8
* Frequency(18) 1448.3930
C    -8.215299    1.743955    0.011428   -0.008607    0.064169   -0.083341
C    -6.779820    2.173726    0.178416   -0.005130    0.030566   -0.038807
H    -8.290979    0.685322    0.306118   -0.797121    0.304825    0.470057
H    -8.541951    1.812224   -1.041025    0.814548   -0.423480   -0.294129
H    -8.875629    2.455862    0.527663    0.125956   -0.892452    1.137931
O    -6.391967    3.099880    0.845186    0.000378   -0.002801    0.003192
O    -5.938354    1.386686   -0.528286    0.000743   -0.003720    0.004637
H    -5.041898    1.730272   -0.369604    0.002500   -0.014227    0.017344
8
* Frequency(18) 1448.3930
C    -8.214361    1.736962    0.020510   -0.008607    0.064169   -0.083341
C    -6.779261    2.170395    0.182645   -0.005130    0.030566   -0.038807
H    -8.204114    0.652104    0.254894   -0.797121    0.304825    0.470057
H    -8.630715    1.858372   -1.008972    0.814548   -0.423480   -0.294129
H    -8.889355    2.553115    0.403659    0.125956   -0.892452    1.137931
O    -6.392008    3.100185    0.844838    0.000378   -0.002801    0.003192
O    -5.938435    1.387091   -0.528791    0.000743   -0.003720    0.004637
H    -5.042171    1.731822   -0.371494    0.002500   -0.014227    0.017344
8
* Frequency(18) 1448.3930
C    -8.213578    1.731128    0.028088   -0.008607    0.064169   -0.083341
C    -6.778795    2.167616    0.186174   -0.005130    0.030566   -0.038807
H    -8.131638    0.624389    0.212156   -0.797121    0.304825    0.470057
H    -8.704775    1.896876   -0.982230    0.814548   -0.423480   -0.294129
H    -8.900807    2.634259    0.300196    0.125956   -0.892452    1.137931
O    -6.392043    3.100440    0.844548    0.000378   -0.002801    0.003192
O    -5.938503    1.387429   -0.529213    0.000743   -0.003720    0.004637
H    -5.042398    1.733116   -0.373071    0.002500   -0.014227    0.017344
8
* Frequency(18) 1448.3930
C    -8.213036    1.727084    0.033340   -0.008607    0.064169   -0.083341
C    -6.778472    2.165689    0.188619   -0.005130    0.030566   -0.038807
H    -8.081406    0.605180    0.182534   -0.797121    0.304825    0.470057
H    -8.756106    1.923562   -0.963694    0.814548   -0.423480   -0.294129
H    -8.908744    2.690499    0.228487    0.125956   -0.892452    1.137931
O    -6.392066    3.100616    0.844346    0.000378   -0.002801    0.003192
O    -5.938550    1.387664   -0.529505    0.000743   -0.003720    0.004637
H    -5.042555    1.734013   -0.374163    0.002500   -0.014227    0.017344
8
* Frequency(18) 1448.3930
C    -8.212793    1.725269    0.035697   -0.008607    0.064169   -0.083341
C    -6.778326    2.164825    0.189717   -0.005130    0.030566   -0.038807
H    -8.058860    0.596558    0.169239   -0.797121    0.304825    0.470057
H    -8.779145    1.935540   -0.955375    0.814548   -0.423480   -0.294129
H    -8.912307    2.715741    0.196301    0.125956   -0.892452    1.137931
O    -6.392077    3.100695    0.844256    0.000378   -0.002801    0.003192
O    -5.938571    1.387769   -0.529636    0.000743   -0.003720    0.004637
H    -5.042626    1.734415   -0.374654    0.002500   -0.014227    0.017344
8
* Frequency(18) 1448.3930
C    -8.212875    1.725880    0.034904   -0.008607    0.064169   -0.083341
C    -6.778375    2.165116    0.189348   -0.005130    0.030566   -0.038807
H    -8.066444    0.599458    0.173711   -0.797121    0.304825    0.470057
H    -8.771395    1.931511   -0.958174    0.814548   -0.423480   -0.294129
H    -8.911108    2.707249    0.207128    0.125956   -0.892452    1.137931
O    -6.392074    3.100669    0.844287    0.000378   -0.002801    0.003192
O    -5.938564    1.387733   -0.529592    0.000743   -0.003720    0.004637
H    -5.042602    1.734280   -0.374489    0.002500   -0.014227    0.017344
8
* Frequency(18) 1448.3930
C    -8.213273    1.728849    0.031047   -0.008607    0.064169   -0.083341
C    -6.778613    2.166530    0.187552   -0.005130    0.030566   -0.038807
H    -8.103337    0.613566    0.195466   -0.797121    0.304825    0.470057
H    -8.733696    1.911911   -0.971787    0.814548   -0.423480   -0.294129
H    -8.905279    2.665945    0.259794    0.125956   -0.892452    1.137931
O    -6.392056    3.100539    0.844434    0.000378   -0.002801    0.003192
O    -5.938529    1.387561   -0.529377    0.000743   -0.003720    0.004637
H    -5.042487    1.733621   -0.373686    0.002500   -0.014227    0.017344
8
* Frequency(18) 1448.3930
C    -8.213945    1.733857    0.024543   -0.008607    0.064169   -0.083341
C    -6.779013    2.168916    0.184523   -0.005130    0.030566   -0.038807
H    -8.165539    0.637353    0.232147   -0.797121    0.304825    0.470057
H    -8.670133    1.878865   -0.994739    0.814548   -0.423480   -0.294129
H    -8.895450    2.596304    0.348591    0.125956   -0.892452    1.137931
O    -6.392027    3.100320    0.844683    0.000378   -0.002801    0.003192
O    -5.938471    1.387271   -0.529016    0.000743   -0.003720    0.004637
H    -5.042292    1.732511   -0.372333    0.002500   -0.014227    0.017344
8
* Frequency(18) 1448.3930
C    -8.214817    1.740359    0.016099   -0.008607    0.064169   -0.083341
C    -6.779533    2.172013    0.180591   -0.005130    0.030566   -0.038807
H    -8.246311    0.668241    0.279778   -0.797121    0.304825    0.470057
H    -8.587596    1.835954   -1.024543    0.814548   -0.423480   -0.294129
H    -8.882687    2.505872    0.463897    0.125956   -0.892452    1.137931
O    -6.391988    3.100037    0.845007    0.000378   -0.002801    0.003192
O    -5.938396    1.386894   -0.528546    0.000743   -0.003720    0.004637
H    -5.042038    1.731069   -0.370575    0.002500   -0.014227    0.017344
8
* Frequency(18) 1448.3930
C    -8.215795    1.747651    0.006627   -0.008607    0.064169   -0.083341
C    -6.780116    2.175487    0.176181   -0.005130    0.030566   -0.038807
H    -8.336900    0.702882    0.333197   -0.797121    0.304825    0.470057
H    -8.495026    1.787828   -1.057969    0.814548   -0.423480   -0.294129
H    -8.868373    2.404449    0.593217    0.125956   -0.892452    1.137931
O    -6.391945    3.099718    0.845370    0.000378   -0.002801    0.003192
O    -5.938312    1.386471   -0.528019    0.000743   -0.003720    0.004637
H    -5.041754    1.729452   -0.368604    0.002500   -0.014227    0.017344
