3
* (null), Energy   -1000.0000000
O    -3.934635   -0.062358    0.019860   -0.100455    0.095361   -0.030371
H    -2.980423    0.055818   -0.017777    0.196847   -1.330984    0.423894
H    -4.055093   -0.972010    0.309567    1.397577   -0.182582    0.058149
3
* Frequency(6) 1613.4835
O    -3.946051   -0.051520    0.016408   -0.100455    0.095361   -0.030371
H    -2.958052   -0.095442    0.030396    0.196847   -1.330984    0.423894
H    -3.896265   -0.992760    0.316176    1.397577   -0.182582    0.058149
3
* Frequency(6) 1613.4835
O    -3.956230   -0.041857    0.013331   -0.100455    0.095361   -0.030371
H    -2.938106   -0.230310    0.073349    0.196847   -1.330984    0.423894
H    -3.754649   -1.011261    0.322068    1.397577   -0.182582    0.058149
3
* Frequency(6) 1613.4835
O    -3.964069   -0.034416    0.010961   -0.100455    0.095361   -0.030371
H    -2.922745   -0.334172    0.106427    0.196847   -1.330984    0.423894
H    -3.645591   -1.025508    0.326605    1.397577   -0.182582    0.058149
3
* Frequency(6) 1613.4835
O    -3.968718   -0.030003    0.009555   -0.100455    0.095361   -0.030371
H    -2.913635   -0.395772    0.126046    0.196847   -1.330984    0.423894
H    -3.580908   -1.033958    0.329297    1.397577   -0.182582    0.058149
3
* Frequency(6) 1613.4835
O    -3.969674   -0.029095    0.009266   -0.100455    0.095361   -0.030371
H    -2.911762   -0.408436    0.130079    0.196847   -1.330984    0.423894
H    -3.567611   -1.035696    0.329850    1.397577   -0.182582    0.058149
3
* Frequency(6) 1613.4835
O    -3.966833   -0.031793    0.010125   -0.100455    0.095361   -0.030371
H    -2.917329   -0.370790    0.118090    0.196847   -1.330984    0.423894
H    -3.607140   -1.030532    0.328205    1.397577   -0.182582    0.058149
3
* Frequency(6) 1613.4835
O    -3.960502   -0.037802    0.012039   -0.100455    0.095361   -0.030371
H    -2.929734   -0.286915    0.091377    0.196847   -1.330984    0.423894
H    -3.695212   -1.019026    0.324541    1.397577   -0.182582    0.058149
3
* Frequency(6) 1613.4835
O    -3.951369   -0.046472    0.014801   -0.100455    0.095361   -0.030371
H    -2.947632   -0.165900    0.052836    0.196847   -1.330984    0.423894
H    -3.822282   -1.002425    0.319254    1.397577   -0.182582    0.058149
3
* Frequency(6) 1613.4835
O    -3.940422   -0.056864    0.018110   -0.100455    0.095361   -0.030371
H    -2.969083   -0.020858    0.006643    0.196847   -1.330984    0.423894
H    -3.974581   -0.982528    0.312917    1.397577   -0.182582    0.058149
3
* Frequency(6) 1613.4835
O    -3.928848   -0.067851    0.021609   -0.100455    0.095361   -0.030371
H    -2.991763    0.132493   -0.042197    0.196847   -1.330984    0.423894
H    -4.135604   -0.961492    0.306217    1.397577   -0.182582    0.058149
3
* Frequency(6) 1613.4835
O    -3.917901   -0.078243    0.024919   -0.100455    0.095361   -0.030371
H    -3.013214    0.277535   -0.088390    0.196847   -1.330984    0.423894
H    -4.287903   -0.941595    0.299881    1.397577   -0.182582    0.058149
3
* Frequency(6) 1613.4835
O    -3.908767   -0.086913    0.027680   -0.100455    0.095361   -0.030371
H    -3.031111    0.398551   -0.126931    0.196847   -1.330984    0.423894
H    -4.414974   -0.924995    0.294594    1.397577   -0.182582    0.058149
3
* Frequency(6) 1613.4835
O    -3.902437   -0.092923    0.029594   -0.100455    0.095361   -0.030371
H    -3.043516    0.482426   -0.153644    0.196847   -1.330984    0.423894
H    -4.503045   -0.913489    0.290929    1.397577   -0.182582    0.058149
3
* Frequency(6) 1613.4835
O    -3.899596   -0.095620    0.030453   -0.100455    0.095361   -0.030371
H    -3.049084    0.520071   -0.165633    0.196847   -1.330984    0.423894
H    -4.542574   -0.908325    0.289285    1.397577   -0.182582    0.058149
3
* Frequency(6) 1613.4835
O    -3.900551   -0.094712    0.030164   -0.100455    0.095361   -0.030371
H    -3.047211    0.507407   -0.161600    0.196847   -1.330984    0.423894
H    -4.529277   -0.910062    0.289838    1.397577   -0.182582    0.058149
3
* Frequency(6) 1613.4835
O    -3.905201   -0.090299    0.028759   -0.100455    0.095361   -0.030371
H    -3.038100    0.445807   -0.141981    0.196847   -1.330984    0.423894
H    -4.464594   -0.918512    0.292529    1.397577   -0.182582    0.058149
3
* Frequency(6) 1613.4835
O    -3.913040   -0.082858    0.026389   -0.100455    0.095361   -0.030371
H    -3.022740    0.341945   -0.108903    0.196847   -1.330984    0.423894
H    -4.355536   -0.932760    0.297067    1.397577   -0.182582    0.058149
3
* Frequency(6) 1613.4835
O    -3.923219   -0.073195    0.023311   -0.100455    0.095361   -0.030371
H    -3.002793    0.207077   -0.065950    0.196847   -1.330984    0.423894
H    -4.213920   -0.951261    0.302959    1.397577   -0.182582    0.058149
3
* Frequency(6) 1613.4835
O    -3.934635   -0.062358    0.019860   -0.100455    0.095361   -0.030371
H    -2.980423    0.055818   -0.017777    0.196847   -1.330984    0.423894
H    -4.055093   -0.972010    0.309567    1.397577   -0.182582    0.058149
