3
* (null), Energy   -1000.0000000
O    -3.934635   -0.062358    0.019860   -0.099282   -0.094923    0.030231
H    -2.980423    0.055818   -0.017777    1.399268    0.173318   -0.055199
H    -4.055093   -0.972010    0.309567    0.176533    1.333306   -0.424633
3
* Frequency(8) 3945.5451
O    -3.945918   -0.073145    0.023295   -0.099282   -0.094923    0.030231
H    -2.821403    0.075514   -0.024050    1.399268    0.173318   -0.055199
H    -4.035031   -0.820487    0.261310    0.176533    1.333306   -0.424633
3
* Frequency(8) 3945.5451
O    -3.955978   -0.082764    0.026359   -0.099282   -0.094923    0.030231
H    -2.679616    0.093077   -0.029643    1.399268    0.173318   -0.055199
H    -4.017142   -0.685383    0.218282    0.176533    1.333306   -0.424633
3
* Frequency(8) 3945.5451
O    -3.963725   -0.090171    0.028718   -0.099282   -0.094923    0.030231
H    -2.570425    0.106601   -0.033951    1.399268    0.173318   -0.055199
H    -4.003367   -0.581341    0.185146    0.176533    1.333306   -0.424633
3
* Frequency(8) 3945.5451
O    -3.968320   -0.094564    0.030117   -0.099282   -0.094923    0.030231
H    -2.505665    0.114623   -0.036505    1.399268    0.173318   -0.055199
H    -3.995197   -0.519633    0.165493    0.176533    1.333306   -0.424633
3
* Frequency(8) 3945.5451
O    -3.969265   -0.095467    0.030405   -0.099282   -0.094923    0.030231
H    -2.492351    0.116272   -0.037030    1.399268    0.173318   -0.055199
H    -3.993517   -0.506947    0.161453    0.176533    1.333306   -0.424633
3
* Frequency(8) 3945.5451
O    -3.966457   -0.092782    0.029549   -0.099282   -0.094923    0.030231
H    -2.531928    0.111370   -0.035469    1.399268    0.173318   -0.055199
H    -3.998510   -0.544658    0.173463    0.176533    1.333306   -0.424633
3
* Frequency(8) 3945.5451
O    -3.960200   -0.086801    0.027644   -0.099282   -0.094923    0.030231
H    -2.620106    0.100448   -0.031991    1.399268    0.173318   -0.055199
H    -4.009635   -0.628679    0.200223    0.176533    1.333306   -0.424633
3
* Frequency(8) 3945.5451
O    -3.951173   -0.078170    0.024896   -0.099282   -0.094923    0.030231
H    -2.747330    0.084689   -0.026972    1.399268    0.173318   -0.055199
H    -4.025685   -0.749906    0.238831    0.176533    1.333306   -0.424633
3
* Frequency(8) 3945.5451
O    -3.940354   -0.067826    0.021601   -0.099282   -0.094923    0.030231
H    -2.899813    0.065802   -0.020957    1.399268    0.173318   -0.055199
H    -4.044923   -0.895201    0.285105    0.176533    1.333306   -0.424633
3
* Frequency(8) 3945.5451
O    -3.928915   -0.056889    0.018118   -0.099282   -0.094923    0.030231
H    -3.061032    0.045833   -0.014597    1.399268    0.173318   -0.055199
H    -4.065262   -1.048819    0.334029    0.176533    1.333306   -0.424633
3
* Frequency(8) 3945.5451
O    -3.918096   -0.046545    0.014824   -0.099282   -0.094923    0.030231
H    -3.213515    0.026946   -0.008582    1.399268    0.173318   -0.055199
H    -4.084500   -1.194114    0.380303    0.176533    1.333306   -0.424633
3
* Frequency(8) 3945.5451
O    -3.909069   -0.037915    0.012075   -0.099282   -0.094923    0.030231
H    -3.340739    0.011188   -0.003563    1.399268    0.173318   -0.055199
H    -4.100550   -1.315341    0.418912    0.176533    1.333306   -0.424633
3
* Frequency(8) 3945.5451
O    -3.902813   -0.031933    0.010170   -0.099282   -0.094923    0.030231
H    -3.428917    0.000266   -0.000085    1.399268    0.173318   -0.055199
H    -4.111675   -1.399362    0.445671    0.176533    1.333306   -0.424633
3
* Frequency(8) 3945.5451
O    -3.900005   -0.029248    0.009315   -0.099282   -0.094923    0.030231
H    -3.468494   -0.004636    0.001477    1.399268    0.173318   -0.055199
H    -4.116668   -1.437073    0.457681    0.176533    1.333306   -0.424633
3
* Frequency(8) 3945.5451
O    -3.900950   -0.030151    0.009603   -0.099282   -0.094923    0.030231
H    -3.455180   -0.002987    0.000951    1.399268    0.173318   -0.055199
H    -4.114989   -1.424388    0.453641    0.176533    1.333306   -0.424633
3
* Frequency(8) 3945.5451
O    -3.905544   -0.034544    0.011002   -0.099282   -0.094923    0.030231
H    -3.390420    0.005034   -0.001603    1.399268    0.173318   -0.055199
H    -4.106818   -1.362680    0.433988    0.176533    1.333306   -0.424633
3
* Frequency(8) 3945.5451
O    -3.913292   -0.041951    0.013361   -0.099282   -0.094923    0.030231
H    -3.281229    0.018559   -0.005911    1.399268    0.173318   -0.055199
H    -4.093043   -1.258637    0.400852    0.176533    1.333306   -0.424633
3
* Frequency(8) 3945.5451
O    -3.923352   -0.051570    0.016424   -0.099282   -0.094923    0.030231
H    -3.139442    0.036121   -0.011504    1.399268    0.173318   -0.055199
H    -4.075155   -1.123533    0.357825    0.176533    1.333306   -0.424633
3
* Frequency(8) 3945.5451
O    -3.934635   -0.062358    0.019860   -0.099282   -0.094923    0.030231
H    -2.980423    0.055818   -0.017777    1.399268    0.173318   -0.055199
H    -4.055093   -0.972010    0.309567    0.176533    1.333306   -0.424633
