3
* (null), Energy   -1000.0000000
O    -3.934635   -0.062358    0.019860   -0.070255    0.066735   -0.021254
H    -2.980423    0.055818   -0.017777    1.385099    0.262135   -0.083485
H    -4.055093   -0.972010    0.309567   -0.270010   -1.321353    0.420827
3
* Frequency(7) 3818.4651
O    -3.942619   -0.054773    0.017444   -0.070255    0.066735   -0.021254
H    -2.823013    0.085608   -0.027265    1.385099    0.262135   -0.083485
H    -4.085778   -1.122175    0.357392   -0.270010   -1.321353    0.420827
3
* Frequency(7) 3818.4651
O    -3.949738   -0.048011    0.015291   -0.070255    0.066735   -0.021254
H    -2.682662    0.112170   -0.035724    1.385099    0.262135   -0.083485
H    -4.113138   -1.256067    0.400034   -0.270010   -1.321353    0.420827
3
* Frequency(7) 3818.4651
O    -3.955220   -0.042804    0.013632   -0.070255    0.066735   -0.021254
H    -2.574577    0.132626   -0.042239    1.385099    0.262135   -0.083485
H    -4.134208   -1.359178    0.432873   -0.270010   -1.321353    0.420827
3
* Frequency(7) 3818.4651
O    -3.958472   -0.039715    0.012649   -0.070255    0.066735   -0.021254
H    -2.510472    0.144758   -0.046103    1.385099    0.262135   -0.083485
H    -4.146704   -1.420332    0.452349   -0.270010   -1.321353    0.420827
3
* Frequency(7) 3818.4651
O    -3.959140   -0.039080    0.012446   -0.070255    0.066735   -0.021254
H    -2.497294    0.147252   -0.046897    1.385099    0.262135   -0.083485
H    -4.149273   -1.432904    0.456353   -0.270010   -1.321353    0.420827
3
* Frequency(7) 3818.4651
O    -3.957153   -0.040968    0.013047   -0.070255    0.066735   -0.021254
H    -2.536470    0.139838   -0.044536    1.385099    0.262135   -0.083485
H    -4.141636   -1.395531    0.444451   -0.270010   -1.321353    0.420827
3
* Frequency(7) 3818.4651
O    -3.952726   -0.045173    0.014387   -0.070255    0.066735   -0.021254
H    -2.623755    0.123318   -0.039275    1.385099    0.262135   -0.083485
H    -4.124621   -1.312263    0.417931   -0.270010   -1.321353    0.420827
3
* Frequency(7) 3818.4651
O    -3.946338   -0.051241    0.016319   -0.070255    0.066735   -0.021254
H    -2.749691    0.099485   -0.031684    1.385099    0.262135   -0.083485
H    -4.100071   -1.192123    0.379669   -0.270010   -1.321353    0.420827
3
* Frequency(7) 3818.4651
O    -3.938682   -0.058513    0.018635   -0.070255    0.066735   -0.021254
H    -2.900630    0.070919   -0.022586    1.385099    0.262135   -0.083485
H    -4.070647   -1.048131    0.333810   -0.270010   -1.321353    0.420827
3
* Frequency(7) 3818.4651
O    -3.930588   -0.066202    0.021084   -0.070255    0.066735   -0.021254
H    -3.060216    0.040717   -0.012967    1.385099    0.262135   -0.083485
H    -4.039538   -0.895889    0.285324   -0.270010   -1.321353    0.420827
3
* Frequency(7) 3818.4651
O    -3.922932   -0.073474    0.023400   -0.070255    0.066735   -0.021254
H    -3.211155    0.012151   -0.003870    1.385099    0.262135   -0.083485
H    -4.010114   -0.751897    0.239465   -0.270010   -1.321353    0.420827
3
* Frequency(7) 3818.4651
O    -3.916544   -0.079542    0.025333   -0.070255    0.066735   -0.021254
H    -3.337090   -0.011683    0.003721    1.385099    0.262135   -0.083485
H    -3.985564   -0.631757    0.201203   -0.270010   -1.321353    0.420827
3
* Frequency(7) 3818.4651
O    -3.912117   -0.083747    0.026672   -0.070255    0.066735   -0.021254
H    -3.424375   -0.028202    0.008982    1.385099    0.262135   -0.083485
H    -3.968549   -0.548489    0.174684   -0.270010   -1.321353    0.420827
3
* Frequency(7) 3818.4651
O    -3.910130   -0.085635    0.027273   -0.070255    0.066735   -0.021254
H    -3.463551   -0.035616    0.011343    1.385099    0.262135   -0.083485
H    -3.960912   -0.511116    0.162781   -0.270010   -1.321353    0.420827
3
* Frequency(7) 3818.4651
O    -3.910798   -0.085000    0.027071   -0.070255    0.066735   -0.021254
H    -3.450373   -0.033122    0.010549    1.385099    0.262135   -0.083485
H    -3.963481   -0.523688    0.166785   -0.270010   -1.321353    0.420827
3
* Frequency(7) 3818.4651
O    -3.914050   -0.081911    0.026087   -0.070255    0.066735   -0.021254
H    -3.386268   -0.020990    0.006685    1.385099    0.262135   -0.083485
H    -3.975977   -0.584843    0.186262   -0.270010   -1.321353    0.420827
3
* Frequency(7) 3818.4651
O    -3.919532   -0.076704    0.024429   -0.070255    0.066735   -0.021254
H    -3.278183   -0.000535    0.000170    1.385099    0.262135   -0.083485
H    -3.997047   -0.687953    0.219100   -0.270010   -1.321353    0.420827
3
* Frequency(7) 3818.4651
O    -3.926651   -0.069942    0.022275   -0.070255    0.066735   -0.021254
H    -3.137832    0.026027   -0.008289    1.385099    0.262135   -0.083485
H    -4.024407   -0.821845    0.261742   -0.270010   -1.321353    0.420827
3
* Frequency(7) 3818.4651
O    -3.934635   -0.062358    0.019860   -0.070255    0.066735   -0.021254
H    -2.980423    0.055818   -0.017777    1.385099    0.262135   -0.083485
H    -4.055093   -0.972010    0.309567   -0.270010   -1.321353    0.420827
