3
Coordinates from ORCA-job H2O_opt_MP2 E -76.302826453146
  O      -4.000000      0.000000      0.000000
  H      -2.973650      0.000000      0.000000
  H      -3.996500     -0.978550      0.311650
3
Coordinates from ORCA-job H2O_opt_MP2 E -76.311320435921
  O      -3.963158     -0.035294      0.011241
  H      -2.993341      0.016287     -0.005187
  H      -4.013651     -0.959543      0.305597
3
Coordinates from ORCA-job H2O_opt_MP2 E -76.312931122766
  O      -3.939022     -0.058230      0.018545
  H      -2.987045      0.045307     -0.014430
  H      -4.044083     -0.965627      0.307534
3
Coordinates from ORCA-job H2O_opt_MP2 E -76.313055751406
  O      -3.935005     -0.061995      0.019744
  H      -2.980345      0.055538     -0.017688
  H      -4.054800     -0.972092      0.309593
3
Coordinates from ORCA-job H2O_opt_MP2 E -76.313056118096
  O      -3.934636     -0.062362      0.019861
  H      -2.980420      0.055820     -0.017778
  H      -4.055094     -0.972008      0.309566
3
Coordinates from ORCA-job H2O_opt_MP2 E -76.313056127550
  O      -3.934635     -0.062358      0.019860
  H      -2.980423      0.055818     -0.017777
  H      -4.055093     -0.972010      0.309567
