3
* (null), Energy   -1000.0000000
O    -3.932335   -0.064560    0.020561    0.000000    0.000000    0.000000
H    -2.981310    0.057157   -0.018203    0.000000    0.000000    0.000000
H    -4.056505   -0.971147    0.309292    0.000000    0.000000    0.000000
3
* Frequency(4)    0.0000
O    -3.932335   -0.064560    0.020561    0.000000    0.000000    0.000000
H    -2.981310    0.057157   -0.018203    0.000000    0.000000    0.000000
H    -4.056505   -0.971147    0.309292    0.000000    0.000000    0.000000
3
* Frequency(4)    0.0000
O    -3.932335   -0.064560    0.020561    0.000000    0.000000    0.000000
H    -2.981310    0.057157   -0.018203    0.000000    0.000000    0.000000
H    -4.056505   -0.971147    0.309292    0.000000    0.000000    0.000000
3
* Frequency(4)    0.0000
O    -3.932335   -0.064560    0.020561    0.000000    0.000000    0.000000
H    -2.981310    0.057157   -0.018203    0.000000    0.000000    0.000000
H    -4.056505   -0.971147    0.309292    0.000000    0.000000    0.000000
3
* Frequency(4)    0.0000
O    -3.932335   -0.064560    0.020561    0.000000    0.000000    0.000000
H    -2.981310    0.057157   -0.018203    0.000000    0.000000    0.000000
H    -4.056505   -0.971147    0.309292    0.000000    0.000000    0.000000
3
* Frequency(4)    0.0000
O    -3.932335   -0.064560    0.020561    0.000000    0.000000    0.000000
H    -2.981310    0.057157   -0.018203    0.000000    0.000000    0.000000
H    -4.056505   -0.971147    0.309292    0.000000    0.000000    0.000000
3
* Frequency(4)    0.0000
O    -3.932335   -0.064560    0.020561    0.000000    0.000000    0.000000
H    -2.981310    0.057157   -0.018203    0.000000    0.000000    0.000000
H    -4.056505   -0.971147    0.309292    0.000000    0.000000    0.000000
3
* Frequency(4)    0.0000
O    -3.932335   -0.064560    0.020561    0.000000    0.000000    0.000000
H    -2.981310    0.057157   -0.018203    0.000000    0.000000    0.000000
H    -4.056505   -0.971147    0.309292    0.000000    0.000000    0.000000
3
* Frequency(4)    0.0000
O    -3.932335   -0.064560    0.020561    0.000000    0.000000    0.000000
H    -2.981310    0.057157   -0.018203    0.000000    0.000000    0.000000
H    -4.056505   -0.971147    0.309292    0.000000    0.000000    0.000000
3
* Frequency(4)    0.0000
O    -3.932335   -0.064560    0.020561    0.000000    0.000000    0.000000
H    -2.981310    0.057157   -0.018203    0.000000    0.000000    0.000000
H    -4.056505   -0.971147    0.309292    0.000000    0.000000    0.000000
3
* Frequency(4)    0.0000
O    -3.932335   -0.064560    0.020561    0.000000    0.000000    0.000000
H    -2.981310    0.057157   -0.018203    0.000000    0.000000    0.000000
H    -4.056505   -0.971147    0.309292    0.000000    0.000000    0.000000
3
* Frequency(4)    0.0000
O    -3.932335   -0.064560    0.020561    0.000000    0.000000    0.000000
H    -2.981310    0.057157   -0.018203    0.000000    0.000000    0.000000
H    -4.056505   -0.971147    0.309292    0.000000    0.000000    0.000000
3
* Frequency(4)    0.0000
O    -3.932335   -0.064560    0.020561    0.000000    0.000000    0.000000
H    -2.981310    0.057157   -0.018203    0.000000    0.000000    0.000000
H    -4.056505   -0.971147    0.309292    0.000000    0.000000    0.000000
3
* Frequency(4)    0.0000
O    -3.932335   -0.064560    0.020561    0.000000    0.000000    0.000000
H    -2.981310    0.057157   -0.018203    0.000000    0.000000    0.000000
H    -4.056505   -0.971147    0.309292    0.000000    0.000000    0.000000
3
* Frequency(4)    0.0000
O    -3.932335   -0.064560    0.020561    0.000000    0.000000    0.000000
H    -2.981310    0.057157   -0.018203    0.000000    0.000000    0.000000
H    -4.056505   -0.971147    0.309292    0.000000    0.000000    0.000000
3
* Frequency(4)    0.0000
O    -3.932335   -0.064560    0.020561    0.000000    0.000000    0.000000
H    -2.981310    0.057157   -0.018203    0.000000    0.000000    0.000000
H    -4.056505   -0.971147    0.309292    0.000000    0.000000    0.000000
3
* Frequency(4)    0.0000
O    -3.932335   -0.064560    0.020561    0.000000    0.000000    0.000000
H    -2.981310    0.057157   -0.018203    0.000000    0.000000    0.000000
H    -4.056505   -0.971147    0.309292    0.000000    0.000000    0.000000
3
* Frequency(4)    0.0000
O    -3.932335   -0.064560    0.020561    0.000000    0.000000    0.000000
H    -2.981310    0.057157   -0.018203    0.000000    0.000000    0.000000
H    -4.056505   -0.971147    0.309292    0.000000    0.000000    0.000000
3
* Frequency(4)    0.0000
O    -3.932335   -0.064560    0.020561    0.000000    0.000000    0.000000
H    -2.981310    0.057157   -0.018203    0.000000    0.000000    0.000000
H    -4.056505   -0.971147    0.309292    0.000000    0.000000    0.000000
3
* Frequency(4)    0.0000
O    -3.932335   -0.064560    0.020561    0.000000    0.000000    0.000000
H    -2.981310    0.057157   -0.018203    0.000000    0.000000    0.000000
H    -4.056505   -0.971147    0.309292    0.000000    0.000000    0.000000
