3
* (null), Energy   -1000.0000000
O    -3.932335   -0.064560    0.020561   -0.070611    0.065977   -0.021013
H    -2.981310    0.057157   -0.018203    1.392580    0.265919   -0.084690
H    -4.056505   -0.971147    0.309292   -0.271837   -1.313113    0.418202
3
* Frequency(7) 3851.6512
O    -3.940360   -0.057062    0.018173   -0.070611    0.065977   -0.021013
H    -2.823051    0.087377   -0.027828    1.392580    0.265919   -0.084690
H    -4.087398   -1.120375    0.356819   -0.271837   -1.313113    0.418202
3
* Frequency(7) 3851.6512
O    -3.947515   -0.050377    0.016044   -0.070611    0.065977   -0.021013
H    -2.681941    0.114323   -0.036410    1.392580    0.265919   -0.084690
H    -4.114943   -1.253433    0.399195   -0.271837   -1.313113    0.418202
3
* Frequency(7) 3851.6512
O    -3.953025   -0.045228    0.014404   -0.070611    0.065977   -0.021013
H    -2.573273    0.135074   -0.043018    1.392580    0.265919   -0.084690
H    -4.136155   -1.355900    0.431829   -0.271837   -1.313113    0.418202
3
* Frequency(7) 3851.6512
O    -3.956293   -0.042175    0.013432   -0.070611    0.065977   -0.021013
H    -2.508822    0.147381   -0.046938    1.392580    0.265919   -0.084690
H    -4.148737   -1.416673    0.451184   -0.271837   -1.313113    0.418202
3
* Frequency(7) 3851.6512
O    -3.956964   -0.041547    0.013232   -0.070611    0.065977   -0.021013
H    -2.495572    0.149911   -0.047744    1.392580    0.265919   -0.084690
H    -4.151323   -1.429167    0.455163   -0.271837   -1.313113    0.418202
3
* Frequency(7) 3851.6512
O    -3.954967   -0.043413    0.013826   -0.070611    0.065977   -0.021013
H    -2.534960    0.142390   -0.045349    1.392580    0.265919   -0.084690
H    -4.143634   -1.392027    0.443335   -0.271837   -1.313113    0.418202
3
* Frequency(7) 3851.6512
O    -3.950518   -0.047571    0.015150   -0.070611    0.065977   -0.021013
H    -2.622716    0.125632   -0.040012    1.392580    0.265919   -0.084690
H    -4.126504   -1.309278    0.416981   -0.271837   -1.313113    0.418202
3
* Frequency(7) 3851.6512
O    -3.944097   -0.053570    0.017061   -0.070611    0.065977   -0.021013
H    -2.749332    0.101454   -0.032311    1.392580    0.265919   -0.084690
H    -4.101788   -1.189887    0.378957   -0.271837   -1.313113    0.418202
3
* Frequency(7) 3851.6512
O    -3.936403   -0.060760    0.019351   -0.070611    0.065977   -0.021013
H    -2.901086    0.072476   -0.023082    1.392580    0.265919   -0.084690
H    -4.072165   -1.046793    0.333384   -0.271837   -1.313113    0.418202
3
* Frequency(7) 3851.6512
O    -3.928267   -0.068361    0.021772   -0.070611    0.065977   -0.021013
H    -3.061534    0.041838   -0.013325    1.392580    0.265919   -0.084690
H    -4.040845   -0.895501    0.285200   -0.271837   -1.313113    0.418202
3
* Frequency(7) 3851.6512
O    -3.920572   -0.075551    0.024062   -0.070611    0.065977   -0.021013
H    -3.213288    0.012860   -0.004096    1.392580    0.265919   -0.084690
H    -4.011222   -0.752406    0.239627   -0.271837   -1.313113    0.418202
3
* Frequency(7) 3851.6512
O    -3.914152   -0.081550    0.025972   -0.070611    0.065977   -0.021013
H    -3.339904   -0.011318    0.003605    1.392580    0.265919   -0.084690
H    -3.986506   -0.633016    0.201604   -0.271837   -1.313113    0.418202
3
* Frequency(7) 3851.6512
O    -3.909703   -0.085707    0.027296   -0.070611    0.065977   -0.021013
H    -3.427661   -0.028076    0.008942    1.392580    0.265919   -0.084690
H    -3.969375   -0.550267    0.175250   -0.271837   -1.313113    0.418202
3
* Frequency(7) 3851.6512
O    -3.907705   -0.087574    0.027891   -0.070611    0.065977   -0.021013
H    -3.467048   -0.035597    0.011337    1.392580    0.265919   -0.084690
H    -3.961687   -0.513127    0.163421   -0.271837   -1.313113    0.418202
3
* Frequency(7) 3851.6512
O    -3.908377   -0.086946    0.027691   -0.070611    0.065977   -0.021013
H    -3.453799   -0.033067    0.010531    1.392580    0.265919   -0.084690
H    -3.964273   -0.525620    0.167400   -0.271837   -1.313113    0.418202
3
* Frequency(7) 3851.6512
O    -3.911645   -0.083892    0.026718   -0.070611    0.065977   -0.021013
H    -3.389348   -0.020759    0.006611    1.392580    0.265919   -0.084690
H    -3.976854   -0.586394    0.186756   -0.271837   -1.313113    0.418202
3
* Frequency(7) 3851.6512
O    -3.917155   -0.078744    0.025078   -0.070611    0.065977   -0.021013
H    -3.280679   -0.000009    0.000003    1.392580    0.265919   -0.084690
H    -3.998067   -0.688861    0.219389   -0.271837   -1.313113    0.418202
3
* Frequency(7) 3851.6512
O    -3.924310   -0.072058    0.022949   -0.070611    0.065977   -0.021013
H    -3.139570    0.026937   -0.008579    1.392580    0.265919   -0.084690
H    -4.025612   -0.821918    0.261766   -0.271837   -1.313113    0.418202
3
* Frequency(7) 3851.6512
O    -3.932335   -0.064560    0.020561   -0.070611    0.065977   -0.021013
H    -2.981310    0.057157   -0.018203    1.392580    0.265919   -0.084690
H    -4.056505   -0.971147    0.309292   -0.271837   -1.313113    0.418202
