10
* (null), Energy   -1000.0000000
C    -2.088921   -1.629462   -0.035933    0.124502   -0.237325    0.040558
C    -0.801078   -0.841472   -0.094282    0.000610    0.091619   -0.015145
H    -2.944179   -0.947511   -0.119139    0.788503    0.599052   -0.076309
H    -2.154936   -2.200320    0.904047   -0.696952   -0.003363    0.120148
H    -2.122997   -2.363918   -0.857226   -0.620390    0.028183   -0.162139
C     0.477054   -1.628132    0.080633   -0.127274   -0.237391    0.031299
H     0.500986   -2.094439    1.078821    0.623587    0.062111    0.150054
H     1.340724   -0.961139   -0.032584   -0.782434    0.605142   -0.110883
H     0.536939   -2.446917   -0.653996    0.693190   -0.041655   -0.114292
O    -0.793721    0.352600   -0.270341    0.001276    0.208883   -0.030389
10
* Frequency(14) 1068.3690
C    -2.074772   -1.656433   -0.031324    0.124502   -0.237325    0.040558
C    -0.801009   -0.831060   -0.096003    0.000610    0.091619   -0.015145
H    -2.854570   -0.879432   -0.127811    0.788503    0.599052   -0.076309
H    -2.234141   -2.200702    0.917701   -0.696952   -0.003363    0.120148
H    -2.193502   -2.360715   -0.875652   -0.620390    0.028183   -0.162139
C     0.462590   -1.655110    0.084190   -0.127274   -0.237391    0.031299
H     0.571854   -2.087381    1.095874    0.623587    0.062111    0.150054
H     1.251805   -0.892367   -0.045185   -0.782434    0.605142   -0.110883
H     0.615716   -2.451651   -0.666985    0.693190   -0.041655   -0.114292
O    -0.793576    0.376338   -0.273795    0.001276    0.208883   -0.030389
10
* Frequency(14) 1068.3690
C    -2.062157   -1.680481   -0.027214    0.124502   -0.237325    0.040558
C    -0.800947   -0.821776   -0.097538    0.000610    0.091619   -0.015145
H    -2.774671   -0.818730   -0.135543    0.788503    0.599052   -0.076309
H    -2.304763   -2.201043    0.929876   -0.696952   -0.003363    0.120148
H    -2.256365   -2.357860   -0.892082   -0.620390    0.028183   -0.162139
C     0.449693   -1.679165    0.087362   -0.127274   -0.237391    0.031299
H     0.635041   -2.081087    1.111079    0.623587    0.062111    0.150054
H     1.172521   -0.831049   -0.056421   -0.782434    0.605142   -0.110883
H     0.685957   -2.455871   -0.678566    0.693190   -0.041655   -0.114292
O    -0.793446    0.397504   -0.276874    0.001276    0.208883   -0.030389
10
* Frequency(14) 1068.3690
C    -2.052441   -1.699000   -0.024050    0.124502   -0.237325    0.040558
C    -0.800900   -0.814627   -0.098719    0.000610    0.091619   -0.015145
H    -2.713141   -0.771984   -0.141498    0.788503    0.599052   -0.076309
H    -2.359149   -2.201306    0.939251   -0.696952   -0.003363    0.120148
H    -2.304777   -2.355660   -0.904734   -0.620390    0.028183   -0.162139
C     0.439761   -1.697689    0.089804   -0.127274   -0.237391    0.031299
H     0.683702   -2.076240    1.122788    0.623587    0.062111    0.150054
H     1.111465   -0.783827   -0.065074   -0.782434    0.605142   -0.110883
H     0.740049   -2.459122   -0.687484    0.693190   -0.041655   -0.114292
O    -0.793347    0.413804   -0.279245    0.001276    0.208883   -0.030389
10
* Frequency(14) 1068.3690
C    -2.046679   -1.709984   -0.022172    0.124502   -0.237325    0.040558
C    -0.800872   -0.810387   -0.099420    0.000610    0.091619   -0.015145
H    -2.676648   -0.744259   -0.145030    0.788503    0.599052   -0.076309
H    -2.391405   -2.201461    0.944812   -0.696952   -0.003363    0.120148
H    -2.333489   -2.354356   -0.912238   -0.620390    0.028183   -0.162139
C     0.433871   -1.708676    0.091253   -0.127274   -0.237391    0.031299
H     0.712563   -2.073366    1.129733    0.623587    0.062111    0.150054
H     1.075252   -0.755820   -0.070206   -0.782434    0.605142   -0.110883
H     0.772131   -2.461050   -0.692774    0.693190   -0.041655   -0.114292
O    -0.793288    0.423472   -0.280652    0.001276    0.208883   -0.030389
10
* Frequency(14) 1068.3690
C    -2.045494   -1.712242   -0.021787    0.124502   -0.237325    0.040558
C    -0.800866   -0.809515   -0.099565    0.000610    0.091619   -0.015145
H    -2.669146   -0.738559   -0.145756    0.788503    0.599052   -0.076309
H    -2.398036   -2.201493    0.945955   -0.696952   -0.003363    0.120148
H    -2.339392   -2.354088   -0.913781   -0.620390    0.028183   -0.162139
C     0.432660   -1.710935    0.091551   -0.127274   -0.237391    0.031299
H     0.718496   -2.072775    1.131161    0.623587    0.062111    0.150054
H     1.067808   -0.750062   -0.071261   -0.782434    0.605142   -0.110883
H     0.778727   -2.461446   -0.693862    0.693190   -0.041655   -0.114292
O    -0.793275    0.425459   -0.280941    0.001276    0.208883   -0.030389
10
* Frequency(14) 1068.3690
C    -2.049016   -1.705529   -0.022934    0.124502   -0.237325    0.040558
C    -0.800883   -0.812106   -0.099136    0.000610    0.091619   -0.015145
H    -2.691448   -0.755503   -0.143598    0.788503    0.599052   -0.076309
H    -2.378324   -2.201398    0.942557   -0.696952   -0.003363    0.120148
H    -2.321845   -2.354885   -0.909195   -0.620390    0.028183   -0.162139
C     0.436260   -1.704221    0.090665   -0.127274   -0.237391    0.031299
H     0.700859   -2.074531    1.126917    0.623587    0.062111    0.150054
H     1.089938   -0.767178   -0.068124   -0.782434    0.605142   -0.110883
H     0.759121   -2.460268   -0.690629    0.693190   -0.041655   -0.114292
O    -0.793311    0.419551   -0.280081    0.001276    0.208883   -0.030389
10
* Frequency(14) 1068.3690
C    -2.056862   -1.690574   -0.025490    0.124502   -0.237325    0.040558
C    -0.800921   -0.817880   -0.098182    0.000610    0.091619   -0.015145
H    -2.741137   -0.793253   -0.138789    0.788503    0.599052   -0.076309
H    -2.334404   -2.201186    0.934985   -0.696952   -0.003363    0.120148
H    -2.282750   -2.356661   -0.898977   -0.620390    0.028183   -0.162139
C     0.444280   -1.689261    0.088693   -0.127274   -0.237391    0.031299
H     0.661562   -2.078445    1.117461    0.623587    0.062111    0.150054
H     1.139245   -0.805313   -0.061137   -0.782434    0.605142   -0.110883
H     0.715438   -2.457643   -0.683427    0.693190   -0.041655   -0.114292
O    -0.793392    0.406388   -0.278166    0.001276    0.208883   -0.030389
10
* Frequency(14) 1068.3690
C    -2.068182   -1.668996   -0.029177    0.124502   -0.237325    0.040558
C    -0.800977   -0.826210   -0.096805    0.000610    0.091619   -0.015145
H    -2.812829   -0.847720   -0.131851    0.788503    0.599052   -0.076309
H    -2.271035   -2.200880    0.924061   -0.696952   -0.003363    0.120148
H    -2.226343   -2.359223   -0.884235   -0.620390    0.028183   -0.162139
C     0.455852   -1.667677    0.085847   -0.127274   -0.237391    0.031299
H     0.604864   -2.084093    1.103818    0.623587    0.062111    0.150054
H     1.210385   -0.860333   -0.051055   -0.782434    0.605142   -0.110883
H     0.652412   -2.453856   -0.673035    0.693190   -0.041655   -0.114292
O    -0.793508    0.387396   -0.275403    0.001276    0.208883   -0.030389
10
* Frequency(14) 1068.3690
C    -2.081749   -1.643134   -0.033597    0.124502   -0.237325    0.040558
C    -0.801043   -0.836194   -0.095154    0.000610    0.091619   -0.015145
H    -2.898755   -0.913001   -0.123535    0.788503    0.599052   -0.076309
H    -2.195086   -2.200514    0.910968   -0.696952   -0.003363    0.120148
H    -2.158737   -2.362295   -0.866567   -0.620390    0.028183   -0.162139
C     0.469722   -1.641808    0.082436   -0.127274   -0.237391    0.031299
H     0.536910   -2.090861    1.087466    0.623587    0.062111    0.150054
H     1.295650   -0.926278   -0.038972   -0.782434    0.605142   -0.110883
H     0.576872   -2.449316   -0.660580    0.693190   -0.041655   -0.114292
O    -0.793647    0.364633   -0.272092    0.001276    0.208883   -0.030389
10
* Frequency(14) 1068.3690
C    -2.096094   -1.615790   -0.038270    0.124502   -0.237325    0.040558
C    -0.801114   -0.846750   -0.093409    0.000610    0.091619   -0.015145
H    -2.989603   -0.982021   -0.114743    0.788503    0.599052   -0.076309
H    -2.114786   -2.200127    0.897125   -0.696952   -0.003363    0.120148
H    -2.087258   -2.365542   -0.847886   -0.620390    0.028183   -0.162139
C     0.484386   -1.614456    0.078830   -0.127274   -0.237391    0.031299
H     0.465062   -2.098017    1.070177    0.623587    0.062111    0.150054
H     1.385799   -0.996000   -0.026196   -0.782434    0.605142   -0.110883
H     0.497005   -2.444517   -0.647412    0.693190   -0.041655   -0.114292
O    -0.793794    0.340567   -0.268590    0.001276    0.208883   -0.030389
10
* Frequency(14) 1068.3690
C    -2.109661   -1.589928   -0.042689    0.124502   -0.237325    0.040558
C    -0.801180   -0.856734   -0.091759    0.000610    0.091619   -0.015145
H    -3.075529   -1.047302   -0.106427    0.788503    0.599052   -0.076309
H    -2.038837   -2.199760    0.884032   -0.696952   -0.003363    0.120148
H    -2.019652   -2.368613   -0.830217   -0.620390    0.028183   -0.162139
C     0.498255   -1.588587    0.075419   -0.127274   -0.237391    0.031299
H     0.397108   -2.104786    1.053825    0.623587    0.062111    0.150054
H     1.471063   -1.061944   -0.014113   -0.782434    0.605142   -0.110883
H     0.421466   -2.439978   -0.634957    0.693190   -0.041655   -0.114292
O    -0.793933    0.317804   -0.265279    0.001276    0.208883   -0.030389
10
* Frequency(14) 1068.3690
C    -2.120981   -1.568350   -0.046377    0.124502   -0.237325    0.040558
C    -0.801235   -0.865064   -0.090382    0.000610    0.091619   -0.015145
H    -3.147221   -1.101769   -0.099489    0.788503    0.599052   -0.076309
H    -1.975469   -2.199454    0.873108   -0.696952   -0.003363    0.120148
H    -1.963245   -2.371175   -0.815475   -0.620390    0.028183   -0.162139
C     0.509827   -1.567003    0.072574   -0.127274   -0.237391    0.031299
H     0.340410   -2.110433    1.040182    0.623587    0.062111    0.150054
H     1.542203   -1.116965   -0.004031   -0.782434    0.605142   -0.110883
H     0.358440   -2.436190   -0.624566    0.693190   -0.041655   -0.114292
O    -0.794049    0.298812   -0.262516    0.001276    0.208883   -0.030389
10
* Frequency(14) 1068.3690
C    -2.128827   -1.553394   -0.048933    0.124502   -0.237325    0.040558
C    -0.801274   -0.870838   -0.089427    0.000610    0.091619   -0.015145
H    -3.196911   -1.139520   -0.094680    0.788503    0.599052   -0.076309
H    -1.931549   -2.199243    0.865537   -0.696952   -0.003363    0.120148
H    -1.924150   -2.372951   -0.805257   -0.620390    0.028183   -0.162139
C     0.517848   -1.552044    0.070601   -0.127274   -0.237391    0.031299
H     0.301113   -2.114347    1.030726    0.623587    0.062111    0.150054
H     1.591510   -1.155099    0.002956   -0.782434    0.605142   -0.110883
H     0.314757   -2.433565   -0.617363    0.693190   -0.041655   -0.114292
O    -0.794130    0.285649   -0.260601    0.001276    0.208883   -0.030389
10
* Frequency(14) 1068.3690
C    -2.132348   -1.546682   -0.050080    0.124502   -0.237325    0.040558
C    -0.801291   -0.873429   -0.088999    0.000610    0.091619   -0.015145
H    -3.219212   -1.156463   -0.092522    0.788503    0.599052   -0.076309
H    -1.911836   -2.199147    0.862139   -0.696952   -0.003363    0.120148
H    -1.906603   -2.373749   -0.800671   -0.620390    0.028183   -0.162139
C     0.521448   -1.545329    0.069716   -0.127274   -0.237391    0.031299
H     0.283476   -2.116104    1.026482    0.623587    0.062111    0.150054
H     1.613641   -1.172215    0.006093   -0.782434    0.605142   -0.110883
H     0.295151   -2.432387   -0.614131    0.693190   -0.041655   -0.114292
O    -0.794166    0.279741   -0.259741    0.001276    0.208883   -0.030389
10
* Frequency(14) 1068.3690
C    -2.131164   -1.548940   -0.049694    0.124502   -0.237325    0.040558
C    -0.801285   -0.872558   -0.089143    0.000610    0.091619   -0.015145
H    -3.211710   -1.150763   -0.093248    0.788503    0.599052   -0.076309
H    -1.918467   -2.199179    0.863282   -0.696952   -0.003363    0.120148
H    -1.912505   -2.373480   -0.802214   -0.620390    0.028183   -0.162139
C     0.520237   -1.547588    0.070014   -0.127274   -0.237391    0.031299
H     0.289409   -2.115513    1.027909    0.623587    0.062111    0.150054
H     1.606196   -1.166457    0.005038   -0.782434    0.605142   -0.110883
H     0.301746   -2.432784   -0.615218    0.693190   -0.041655   -0.114292
O    -0.794154    0.281728   -0.260030    0.001276    0.208883   -0.030389
10
* Frequency(14) 1068.3690
C    -2.125402   -1.559923   -0.047817    0.124502   -0.237325    0.040558
C    -0.801257   -0.868317   -0.089844    0.000610    0.091619   -0.015145
H    -3.175217   -1.123038   -0.096780    0.788503    0.599052   -0.076309
H    -1.950723   -2.199335    0.868843   -0.696952   -0.003363    0.120148
H    -1.941218   -2.372176   -0.809718   -0.620390    0.028183   -0.162139
C     0.514346   -1.558575    0.071462   -0.127274   -0.237391    0.031299
H     0.318270   -2.112638    1.034854    0.623587    0.062111    0.150054
H     1.569984   -1.138450   -0.000094   -0.782434    0.605142   -0.110883
H     0.333828   -2.434711   -0.620508    0.693190   -0.041655   -0.114292
O    -0.794095    0.291396   -0.261437    0.001276    0.208883   -0.030389
10
* Frequency(14) 1068.3690
C    -2.115686   -1.578443   -0.044652    0.124502   -0.237325    0.040558
C    -0.801209   -0.861168   -0.091026    0.000610    0.091619   -0.015145
H    -3.113687   -1.076292   -0.102734    0.788503    0.599052   -0.076309
H    -2.005109   -2.199597    0.878218   -0.696952   -0.003363    0.120148
H    -1.989630   -2.369977   -0.822370   -0.620390    0.028183   -0.162139
C     0.504414   -1.577099    0.073905   -0.127274   -0.237391    0.031299
H     0.366931   -2.107791    1.046563    0.623587    0.062111    0.150054
H     1.508927   -1.091229   -0.008747   -0.782434    0.605142   -0.110883
H     0.387921   -2.437962   -0.629426    0.693190   -0.041655   -0.114292
O    -0.793995    0.307696   -0.263808    0.001276    0.208883   -0.030389
10
* Frequency(14) 1068.3690
C    -2.103070   -1.602491   -0.040542    0.124502   -0.237325    0.040558
C    -0.801148   -0.851884   -0.092561    0.000610    0.091619   -0.015145
H    -3.033788   -1.015590   -0.110467    0.788503    0.599052   -0.076309
H    -2.075731   -2.199938    0.890393   -0.696952   -0.003363    0.120148
H    -2.052493   -2.367121   -0.838800   -0.620390    0.028183   -0.162139
C     0.491518   -1.601154    0.077076   -0.127274   -0.237391    0.031299
H     0.430119   -2.101498    1.061768    0.623587    0.062111    0.150054
H     1.429644   -1.029910   -0.019983   -0.782434    0.605142   -0.110883
H     0.458161   -2.442183   -0.641007    0.693190   -0.041655   -0.114292
O    -0.793866    0.328862   -0.266888    0.001276    0.208883   -0.030389
10
* Frequency(14) 1068.3690
C    -2.088921   -1.629462   -0.035933    0.124502   -0.237325    0.040558
C    -0.801078   -0.841472   -0.094282    0.000610    0.091619   -0.015145
H    -2.944179   -0.947511   -0.119139    0.788503    0.599052   -0.076309
H    -2.154936   -2.200320    0.904047   -0.696952   -0.003363    0.120148
H    -2.122997   -2.363918   -0.857226   -0.620390    0.028183   -0.162139
C     0.477054   -1.628132    0.080633   -0.127274   -0.237391    0.031299
H     0.500986   -2.094439    1.078821    0.623587    0.062111    0.150054
H     1.340724   -0.961139   -0.032584   -0.782434    0.605142   -0.110883
H     0.536939   -2.446917   -0.653996    0.693190   -0.041655   -0.114292
O    -0.793721    0.352600   -0.270341    0.001276    0.208883   -0.030389
