10
* (null), Energy   -1000.0000000
C    -2.088921   -1.629462   -0.035933    0.004984   -0.011567   -0.105679
C    -0.801078   -0.841472   -0.094282   -0.000399   -0.000137   -0.001395
H    -2.944179   -0.947511   -0.119139   -0.035228    0.027203   -0.017610
H    -2.154936   -2.200320    0.904047   -0.045887   -0.432977    0.692078
H    -2.122997   -2.363918   -0.857226    0.023718    0.546675    0.595794
C     0.477054   -1.628132    0.080633    0.006848   -0.027409   -0.147562
H     0.500986   -2.094439    1.078821    0.022510   -0.499042    1.033252
H     1.340724   -0.961139   -0.032584   -0.043719   -0.038210   -0.015048
H     0.536939   -2.446917   -0.653996   -0.058092    0.864097    0.755036
O    -0.793721    0.352600   -0.270341    0.000029   -0.000106   -0.000588
10
* Frequency(27) 3148.1157
C    -2.088355   -1.630776   -0.047943    0.004984   -0.011567   -0.105679
C    -0.801124   -0.841488   -0.094440   -0.000399   -0.000137   -0.001395
H    -2.948183   -0.944420   -0.121140   -0.035228    0.027203   -0.017610
H    -2.160151   -2.249526    0.982698   -0.045887   -0.432977    0.692078
H    -2.120302   -2.301791   -0.789517    0.023718    0.546675    0.595794
C     0.477832   -1.631247    0.063864    0.006848   -0.027409   -0.147562
H     0.503544   -2.151153    1.196245    0.022510   -0.499042    1.033252
H     1.335756   -0.965481   -0.034294   -0.043719   -0.038210   -0.015048
H     0.530337   -2.348716   -0.568190   -0.058092    0.864097    0.755036
O    -0.793717    0.352588   -0.270408    0.000029   -0.000106   -0.000588
10
* Frequency(27) 3148.1157
C    -2.087850   -1.631948   -0.058652    0.004984   -0.011567   -0.105679
C    -0.801164   -0.841502   -0.094582   -0.000399   -0.000137   -0.001395
H    -2.951752   -0.941663   -0.122925   -0.035228    0.027203   -0.017610
H    -2.164801   -2.293399    1.052826   -0.045887   -0.432977    0.692078
H    -2.117899   -2.246397   -0.729146    0.023718    0.546675    0.595794
C     0.478526   -1.634024    0.048911    0.006848   -0.027409   -0.147562
H     0.505825   -2.201720    1.300944    0.022510   -0.499042    1.033252
H     1.331326   -0.969353   -0.035819   -0.043719   -0.038210   -0.015048
H     0.524450   -2.261158   -0.491683   -0.058092    0.864097    0.755036
O    -0.793714    0.352577   -0.270468    0.000029   -0.000106   -0.000588
10
* Frequency(27) 3148.1157
C    -2.087461   -1.632851   -0.066898    0.004984   -0.011567   -0.105679
C    -0.801195   -0.841512   -0.094691   -0.000399   -0.000137   -0.001395
H    -2.954501   -0.939540   -0.124299   -0.035228    0.027203   -0.017610
H    -2.168381   -2.327186    1.106831   -0.045887   -0.432977    0.692078
H    -2.116048   -2.203738   -0.682654    0.023718    0.546675    0.595794
C     0.479060   -1.636163    0.037396    0.006848   -0.027409   -0.147562
H     0.507582   -2.240663    1.381573    0.022510   -0.499042    1.033252
H     1.327914   -0.972334   -0.036993   -0.043719   -0.038210   -0.015048
H     0.519917   -2.193729   -0.432764   -0.058092    0.864097    0.755036
O    -0.793712    0.352569   -0.270513    0.000029   -0.000106   -0.000588
10
* Frequency(27) 3148.1157
C    -2.087230   -1.633386   -0.071789    0.004984   -0.011567   -0.105679
C    -0.801214   -0.841519   -0.094755   -0.000399   -0.000137   -0.001395
H    -2.956131   -0.938281   -0.125114   -0.035228    0.027203   -0.017610
H    -2.170505   -2.347225    1.138862   -0.045887   -0.432977    0.692078
H    -2.114950   -2.178437   -0.655079    0.023718    0.546675    0.595794
C     0.479377   -1.637432    0.030567    0.006848   -0.027409   -0.147562
H     0.508624   -2.263759    1.429393    0.022510   -0.499042    1.033252
H     1.325891   -0.974103   -0.037690   -0.043719   -0.038210   -0.015048
H     0.517229   -2.153737   -0.397820   -0.058092    0.864097    0.755036
O    -0.793711    0.352564   -0.270541    0.000029   -0.000106   -0.000588
10
* Frequency(27) 3148.1157
C    -2.087183   -1.633496   -0.072795    0.004984   -0.011567   -0.105679
C    -0.801218   -0.841520   -0.094769   -0.000399   -0.000137   -0.001395
H    -2.956467   -0.938022   -0.125281   -0.035228    0.027203   -0.017610
H    -2.170942   -2.351345    1.145447   -0.045887   -0.432977    0.692078
H    -2.114725   -2.173236   -0.649411    0.023718    0.546675    0.595794
C     0.479442   -1.637692    0.029163    0.006848   -0.027409   -0.147562
H     0.508838   -2.268507    1.439224    0.022510   -0.499042    1.033252
H     1.325475   -0.974466   -0.037833   -0.043719   -0.038210   -0.015048
H     0.516676   -2.145516   -0.390636   -0.058092    0.864097    0.755036
O    -0.793710    0.352563   -0.270546    0.000029   -0.000106   -0.000588
10
* Frequency(27) 3148.1157
C    -2.087324   -1.633169   -0.069806    0.004984   -0.011567   -0.105679
C    -0.801206   -0.841516   -0.094729   -0.000399   -0.000137   -0.001395
H    -2.955470   -0.938792   -0.124783   -0.035228    0.027203   -0.017610
H    -2.169644   -2.339098    1.125872   -0.045887   -0.432977    0.692078
H    -2.115395   -2.188698   -0.666262    0.023718    0.546675    0.595794
C     0.479249   -1.636917    0.033337    0.006848   -0.027409   -0.147562
H     0.508201   -2.254392    1.410000    0.022510   -0.499042    1.033252
H     1.326711   -0.973386   -0.037407   -0.043719   -0.038210   -0.015048
H     0.518319   -2.169956   -0.411992   -0.058092    0.864097    0.755036
O    -0.793711    0.352566   -0.270530    0.000029   -0.000106   -0.000588
10
* Frequency(27) 3148.1157
C    -2.087638   -1.632440   -0.063146    0.004984   -0.011567   -0.105679
C    -0.801181   -0.841508   -0.094641   -0.000399   -0.000137   -0.001395
H    -2.953250   -0.940506   -0.123674   -0.035228    0.027203   -0.017610
H    -2.166752   -2.311813    1.082259   -0.045887   -0.432977    0.692078
H    -2.116890   -2.223148   -0.703807    0.023718    0.546675    0.595794
C     0.478817   -1.635190    0.042636    0.006848   -0.027409   -0.147562
H     0.506783   -2.222944    1.344887    0.022510   -0.499042    1.033252
H     1.329466   -0.970978   -0.036459   -0.043719   -0.038210   -0.015048
H     0.521980   -2.224409   -0.459572   -0.058092    0.864097    0.755036
O    -0.793713    0.352573   -0.270493    0.000029   -0.000106   -0.000588
10
* Frequency(27) 3148.1157
C    -2.088091   -1.631389   -0.053537    0.004984   -0.011567   -0.105679
C    -0.801145   -0.841495   -0.094514   -0.000399   -0.000137   -0.001395
H    -2.950047   -0.942979   -0.122072   -0.035228    0.027203   -0.017610
H    -2.162580   -2.272446    1.019334   -0.045887   -0.432977    0.692078
H    -2.119046   -2.272852   -0.757978    0.023718    0.546675    0.595794
C     0.478195   -1.632698    0.056052    0.006848   -0.027409   -0.147562
H     0.504736   -2.177570    1.250942    0.022510   -0.499042    1.033252
H     1.333441   -0.967504   -0.035091   -0.043719   -0.038210   -0.015048
H     0.527262   -2.302974   -0.528221   -0.058092    0.864097    0.755036
O    -0.793716    0.352582   -0.270439    0.000029   -0.000106   -0.000588
10
* Frequency(27) 3148.1157
C    -2.088634   -1.630128   -0.042021    0.004984   -0.011567   -0.105679
C    -0.801101   -0.841480   -0.094362   -0.000399   -0.000137   -0.001395
H    -2.946208   -0.945944   -0.120153   -0.035228    0.027203   -0.017610
H    -2.157580   -2.225263    0.943916   -0.045887   -0.432977    0.692078
H    -2.121631   -2.332425   -0.822904    0.023718    0.546675    0.595794
C     0.477448   -1.629711    0.072133    0.006848   -0.027409   -0.147562
H     0.502283   -2.123188    1.138345    0.022510   -0.499042    1.033252
H     1.338206   -0.963340   -0.033451   -0.043719   -0.038210   -0.015048
H     0.533592   -2.397138   -0.610500   -0.058092    0.864097    0.755036
O    -0.793719    0.352594   -0.270375    0.000029   -0.000106   -0.000588
10
* Frequency(27) 3148.1157
C    -2.089208   -1.628795   -0.029845    0.004984   -0.011567   -0.105679
C    -0.801055   -0.841464   -0.094201   -0.000399   -0.000137   -0.001395
H    -2.942150   -0.949078   -0.118124   -0.035228    0.027203   -0.017610
H    -2.152293   -2.175377    0.864178   -0.045887   -0.432977    0.692078
H    -2.124364   -2.395411   -0.891549    0.023718    0.546675    0.595794
C     0.476659   -1.626553    0.089134    0.006848   -0.027409   -0.147562
H     0.499689   -2.065690    1.019298    0.022510   -0.499042    1.033252
H     1.343243   -0.958937   -0.031717   -0.043719   -0.038210   -0.015048
H     0.540285   -2.496696   -0.697492   -0.058092    0.864097    0.755036
O    -0.793722    0.352606   -0.270307    0.000029   -0.000106   -0.000588
10
* Frequency(27) 3148.1157
C    -2.089752   -1.627535   -0.018329    0.004984   -0.011567   -0.105679
C    -0.801012   -0.841449   -0.094049   -0.000399   -0.000137   -0.001395
H    -2.938311   -0.952043   -0.116205   -0.035228    0.027203   -0.017610
H    -2.147292   -2.128194    0.788759   -0.045887   -0.432977    0.692078
H    -2.126948   -2.454984   -0.956474    0.023718    0.546675    0.595794
C     0.475913   -1.623566    0.105214    0.006848   -0.027409   -0.147562
H     0.497236   -2.011308    0.906701    0.022510   -0.499042    1.033252
H     1.348007   -0.954774   -0.030077   -0.043719   -0.038210   -0.015048
H     0.546616   -2.590859   -0.779771   -0.058092    0.864097    0.755036
O    -0.793725    0.352618   -0.270243    0.000029   -0.000106   -0.000588
10
* Frequency(27) 3148.1157
C    -2.090205   -1.626483   -0.008720    0.004984   -0.011567   -0.105679
C    -0.800976   -0.841437   -0.093923   -0.000399   -0.000137   -0.001395
H    -2.935108   -0.954516   -0.114604   -0.035228    0.027203   -0.017610
H    -2.143120   -2.088827    0.725835   -0.045887   -0.432977    0.692078
H    -2.129105   -2.504689   -1.010645    0.023718    0.546675    0.595794
C     0.475290   -1.621074    0.118631    0.006848   -0.027409   -0.147562
H     0.495190   -1.965934    0.812755    0.022510   -0.499042    1.033252
H     1.351982   -0.951299   -0.028709   -0.043719   -0.038210   -0.015048
H     0.551898   -2.669425   -0.848420   -0.058092    0.864097    0.755036
O    -0.793728    0.352627   -0.270190    0.000029   -0.000106   -0.000588
10
* Frequency(27) 3148.1157
C    -2.090519   -1.625754   -0.002061    0.004984   -0.011567   -0.105679
C    -0.800951   -0.841428   -0.093835   -0.000399   -0.000137   -0.001395
H    -2.932888   -0.956230   -0.113495   -0.035228    0.027203   -0.017610
H    -2.140228   -2.061542    0.682222   -0.045887   -0.432977    0.692078
H    -2.130600   -2.539139   -1.048190    0.023718    0.546675    0.595794
C     0.474859   -1.619347    0.127930    0.006848   -0.027409   -0.147562
H     0.493771   -1.934486    0.747643    0.022510   -0.499042    1.033252
H     1.354737   -0.948892   -0.027761   -0.043719   -0.038210   -0.015048
H     0.555559   -2.723878   -0.896001   -0.058092    0.864097    0.755036
O    -0.793730    0.352634   -0.270153    0.000029   -0.000106   -0.000588
10
* Frequency(27) 3148.1157
C    -2.090660   -1.625427    0.000928    0.004984   -0.011567   -0.105679
C    -0.800939   -0.841424   -0.093795   -0.000399   -0.000137   -0.001395
H    -2.931891   -0.957000   -0.112996   -0.035228    0.027203   -0.017610
H    -2.138931   -2.049296    0.662647   -0.045887   -0.432977    0.692078
H    -2.131270   -2.554601   -1.065042    0.023718    0.546675    0.595794
C     0.474665   -1.618572    0.132104    0.006848   -0.027409   -0.147562
H     0.493134   -1.920371    0.718418    0.022510   -0.499042    1.033252
H     1.355974   -0.947811   -0.027335   -0.043719   -0.038210   -0.015048
H     0.557202   -2.748318   -0.917356   -0.058092    0.864097    0.755036
O    -0.793731    0.352637   -0.270136    0.000029   -0.000106   -0.000588
10
* Frequency(27) 3148.1157
C    -2.090612   -1.625537   -0.000077    0.004984   -0.011567   -0.105679
C    -0.800943   -0.841426   -0.093808   -0.000399   -0.000137   -0.001395
H    -2.932227   -0.956741   -0.113164   -0.035228    0.027203   -0.017610
H    -2.139367   -2.053415    0.669232   -0.045887   -0.432977    0.692078
H    -2.131045   -2.549400   -1.059373    0.023718    0.546675    0.595794
C     0.474730   -1.618833    0.130700    0.006848   -0.027409   -0.147562
H     0.493349   -1.925119    0.728249    0.022510   -0.499042    1.033252
H     1.355558   -0.948174   -0.027478   -0.043719   -0.038210   -0.015048
H     0.556649   -2.740096   -0.910172   -0.058092    0.864097    0.755036
O    -0.793731    0.352636   -0.270142    0.000029   -0.000106   -0.000588
10
* Frequency(27) 3148.1157
C    -2.090382   -1.626072   -0.004968    0.004984   -0.011567   -0.105679
C    -0.800962   -0.841432   -0.093873   -0.000399   -0.000137   -0.001395
H    -2.933857   -0.955482   -0.113979   -0.035228    0.027203   -0.017610
H    -2.141491   -2.073454    0.701262   -0.045887   -0.432977    0.692078
H    -2.129947   -2.524098   -1.031799    0.023718    0.546675    0.595794
C     0.475047   -1.620101    0.123870    0.006848   -0.027409   -0.147562
H     0.494390   -1.948216    0.776070    0.022510   -0.499042    1.033252
H     1.353534   -0.949943   -0.028175   -0.043719   -0.038210   -0.015048
H     0.553960   -2.700104   -0.875228   -0.058092    0.864097    0.755036
O    -0.793729    0.352631   -0.270169    0.000029   -0.000106   -0.000588
10
* Frequency(27) 3148.1157
C    -2.089993   -1.626975   -0.013215    0.004984   -0.011567   -0.105679
C    -0.800993   -0.841443   -0.093982   -0.000399   -0.000137   -0.001395
H    -2.936606   -0.953359   -0.115353   -0.035228    0.027203   -0.017610
H    -2.145072   -2.107241    0.755268   -0.045887   -0.432977    0.692078
H    -2.128096   -2.481439   -0.985307    0.023718    0.546675    0.595794
C     0.475582   -1.622240    0.112355    0.006848   -0.027409   -0.147562
H     0.496147   -1.987158    0.856699    0.022510   -0.499042    1.033252
H     1.350123   -0.952925   -0.029349   -0.043719   -0.038210   -0.015048
H     0.549427   -2.632675   -0.816310   -0.058092    0.864097    0.755036
O    -0.793727    0.352623   -0.270215    0.000029   -0.000106   -0.000588
10
* Frequency(27) 3148.1157
C    -2.089488   -1.628147   -0.023923    0.004984   -0.011567   -0.105679
C    -0.801033   -0.841457   -0.094123   -0.000399   -0.000137   -0.001395
H    -2.940176   -0.950603   -0.117138   -0.035228    0.027203   -0.017610
H    -2.149721   -2.151115    0.825396   -0.045887   -0.432977    0.692078
H    -2.125693   -2.426045   -0.924935    0.023718    0.546675    0.595794
C     0.476276   -1.625017    0.097403    0.006848   -0.027409   -0.147562
H     0.498428   -2.037726    0.961398    0.022510   -0.499042    1.033252
H     1.345693   -0.956796   -0.030874   -0.043719   -0.038210   -0.015048
H     0.543541   -2.545117   -0.739802   -0.058092    0.864097    0.755036
O    -0.793724    0.352612   -0.270274    0.000029   -0.000106   -0.000588
10
* Frequency(27) 3148.1157
C    -2.088921   -1.629462   -0.035933    0.004984   -0.011567   -0.105679
C    -0.801078   -0.841472   -0.094282   -0.000399   -0.000137   -0.001395
H    -2.944179   -0.947511   -0.119139   -0.035228    0.027203   -0.017610
H    -2.154936   -2.200320    0.904047   -0.045887   -0.432977    0.692078
H    -2.122997   -2.363918   -0.857226    0.023718    0.546675    0.595794
C     0.477054   -1.628132    0.080633    0.006848   -0.027409   -0.147562
H     0.500986   -2.094439    1.078821    0.022510   -0.499042    1.033252
H     1.340724   -0.961139   -0.032584   -0.043719   -0.038210   -0.015048
H     0.536939   -2.446917   -0.653996   -0.058092    0.864097    0.755036
O    -0.793721    0.352600   -0.270341    0.000029   -0.000106   -0.000588
