10
* (null), Energy   -1000.0000000
C    -2.088921   -1.629462   -0.035933    0.044199    0.266342   -0.033321
C    -0.801078   -0.841472   -0.094282   -0.179976   -0.001450   -0.015766
H    -2.944179   -0.947511   -0.119139   -0.554354   -0.488072    0.063554
H    -2.154936   -2.200320    0.904047    0.857154    0.106633   -0.073650
H    -2.122997   -2.363918   -0.857226    0.768538    0.088934    0.094432
C     0.477054   -1.628132    0.080633    0.040569   -0.264628    0.045558
H     0.500986   -2.094439    1.078821    0.767264   -0.067170    0.119783
H     1.340724   -0.961139   -0.032584   -0.549566    0.493075   -0.086277
H     0.536939   -2.446917   -0.653996    0.853361   -0.131300   -0.037610
O    -0.793721    0.352600   -0.270341   -0.063503   -0.000330   -0.002406
10
* Frequency(13)  882.8595
C    -2.083898   -1.599193   -0.039720    0.044199    0.266342   -0.033321
C    -0.821532   -0.841637   -0.096073   -0.179976   -0.001450   -0.015766
H    -3.007179   -1.002978   -0.111916   -0.554354   -0.488072    0.063554
H    -2.057525   -2.188202    0.895677    0.857154    0.106633   -0.073650
H    -2.035657   -2.353811   -0.846494    0.768538    0.088934    0.094432
C     0.481664   -1.658206    0.085811    0.040569   -0.264628    0.045558
H     0.588182   -2.102073    1.092434    0.767264   -0.067170    0.119783
H     1.278269   -0.905103   -0.042389   -0.549566    0.493075   -0.086277
H     0.633919   -2.461838   -0.658270    0.853361   -0.131300   -0.037610
O    -0.800937    0.352563   -0.270615   -0.063503   -0.000330   -0.002406
10
* Frequency(13)  882.8595
C    -2.079420   -1.572205   -0.043096    0.044199    0.266342   -0.033321
C    -0.839769   -0.841784   -0.097671   -0.179976   -0.001450   -0.015766
H    -3.063351   -1.052434   -0.105476   -0.554354   -0.488072    0.063554
H    -1.970670   -2.177397    0.888214    0.857154    0.106633   -0.073650
H    -1.957781   -2.344800   -0.836926    0.768538    0.088934    0.094432
C     0.485775   -1.685020    0.090427    0.040569   -0.264628    0.045558
H     0.665928   -2.108879    1.104571    0.767264   -0.067170    0.119783
H     1.222581   -0.855140   -0.051131   -0.549566    0.493075   -0.086277
H     0.720390   -2.475143   -0.662081    0.853361   -0.131300   -0.037610
O    -0.807372    0.352529   -0.270858   -0.063503   -0.000330   -0.002406
10
* Frequency(13)  882.8595
C    -2.075971   -1.551421   -0.045697    0.044199    0.266342   -0.033321
C    -0.853813   -0.841897   -0.098901   -0.179976   -0.001450   -0.015766
H    -3.106609   -1.090520   -0.100517   -0.554354   -0.488072    0.063554
H    -1.903783   -2.169076    0.882467    0.857154    0.106633   -0.073650
H    -1.897809   -2.337860   -0.829557    0.768538    0.088934    0.094432
C     0.488941   -1.705670    0.093982    0.040569   -0.264628    0.045558
H     0.725801   -2.114120    1.113919    0.767264   -0.067170    0.119783
H     1.179697   -0.816664   -0.057864   -0.549566    0.493075   -0.086277
H     0.786981   -2.485389   -0.665016    0.853361   -0.131300   -0.037610
O    -0.812328    0.352503   -0.271046   -0.063503   -0.000330   -0.002406
10
* Frequency(13)  882.8595
C    -2.073925   -1.539095   -0.047239    0.044199    0.266342   -0.033321
C    -0.862142   -0.841964   -0.099631   -0.179976   -0.001450   -0.015766
H    -3.132266   -1.113109   -0.097576   -0.554354   -0.488072    0.063554
H    -1.864112   -2.164141    0.879058    0.857154    0.106633   -0.073650
H    -1.862240   -2.333744   -0.825186    0.768538    0.088934    0.094432
C     0.490818   -1.717918    0.096091    0.040569   -0.264628    0.045558
H     0.761311   -2.117229    1.119462    0.767264   -0.067170    0.119783
H     1.154262   -0.793843   -0.061857   -0.549566    0.493075   -0.086277
H     0.826476   -2.491466   -0.666757    0.853361   -0.131300   -0.037610
O    -0.815267    0.352488   -0.271158   -0.063503   -0.000330   -0.002406
10
* Frequency(13)  882.8595
C    -2.073504   -1.536561   -0.047556    0.044199    0.266342   -0.033321
C    -0.863855   -0.841978   -0.099781   -0.179976   -0.001450   -0.015766
H    -3.137540   -1.117753   -0.096971   -0.554354   -0.488072    0.063554
H    -1.855957   -2.163126    0.878358    0.857154    0.106633   -0.073650
H    -1.854928   -2.332898   -0.824288    0.768538    0.088934    0.094432
C     0.491204   -1.720436    0.096524    0.040569   -0.264628    0.045558
H     0.768611   -2.117868    1.120602    0.767264   -0.067170    0.119783
H     1.149033   -0.789152   -0.062678   -0.549566    0.493075   -0.086277
H     0.834595   -2.492715   -0.667115    0.853361   -0.131300   -0.037610
O    -0.815871    0.352485   -0.271181   -0.063503   -0.000330   -0.002406
10
* Frequency(13)  882.8595
C    -2.074755   -1.544094   -0.046613    0.044199    0.266342   -0.033321
C    -0.858764   -0.841937   -0.099335   -0.179976   -0.001450   -0.015766
H    -3.121861   -1.103948   -0.098769   -0.554354   -0.488072    0.063554
H    -1.880201   -2.166142    0.880441    0.857154    0.106633   -0.073650
H    -1.876665   -2.335413   -0.826959    0.768538    0.088934    0.094432
C     0.490057   -1.712951    0.095236    0.040569   -0.264628    0.045558
H     0.746910   -2.115968    1.117214    0.767264   -0.067170    0.119783
H     1.164577   -0.803098   -0.060238   -0.549566    0.493075   -0.086277
H     0.810459   -2.489001   -0.666051    0.853361   -0.131300   -0.037610
O    -0.814075    0.352494   -0.271112   -0.063503   -0.000330   -0.002406
10
* Frequency(13)  882.8595
C    -2.077540   -1.560878   -0.044513    0.044199    0.266342   -0.033321
C    -0.847423   -0.841846   -0.098341   -0.179976   -0.001450   -0.015766
H    -3.086927   -1.073191   -0.102774   -0.554354   -0.488072    0.063554
H    -1.934216   -2.172862    0.885082    0.857154    0.106633   -0.073650
H    -1.925096   -2.341018   -0.832910    0.768538    0.088934    0.094432
C     0.487500   -1.696275    0.092365    0.040569   -0.264628    0.045558
H     0.698559   -2.111736    1.109666    0.767264   -0.067170    0.119783
H     1.199209   -0.834170   -0.054801   -0.549566    0.493075   -0.086277
H     0.756682   -2.480727   -0.663681    0.853361   -0.131300   -0.037610
O    -0.810073    0.352515   -0.270961   -0.063503   -0.000330   -0.002406
10
* Frequency(13)  882.8595
C    -2.081559   -1.585094   -0.041484    0.044199    0.266342   -0.033321
C    -0.831059   -0.841714   -0.096908   -0.179976   -0.001450   -0.015766
H    -3.036524   -1.028815   -0.108552   -0.554354   -0.488072    0.063554
H    -2.012150   -2.182557    0.891778    0.857154    0.106633   -0.073650
H    -1.994973   -2.349104   -0.841496    0.768538    0.088934    0.094432
C     0.483812   -1.672214    0.088222    0.040569   -0.264628    0.045558
H     0.628798   -2.105628    1.098775    0.767264   -0.067170    0.119783
H     1.249177   -0.879001   -0.046956   -0.549566    0.493075   -0.086277
H     0.679093   -2.468789   -0.660261    0.853361   -0.131300   -0.037610
O    -0.804299    0.352545   -0.270742   -0.063503   -0.000330   -0.002406
10
* Frequency(13)  882.8595
C    -2.086375   -1.614118   -0.037853    0.044199    0.266342   -0.033321
C    -0.811446   -0.841556   -0.095190   -0.179976   -0.001450   -0.015766
H    -2.976114   -0.975628   -0.115478   -0.554354   -0.488072    0.063554
H    -2.105557   -2.194177    0.899804    0.857154    0.106633   -0.073650
H    -2.078723   -2.358795   -0.851786    0.768538    0.088934    0.094432
C     0.479391   -1.643377    0.083258    0.040569   -0.264628    0.045558
H     0.545187   -2.098309    1.085722    0.767264   -0.067170    0.119783
H     1.309065   -0.932734   -0.037554   -0.549566    0.493075   -0.086277
H     0.586099   -2.454481   -0.656163    0.853361   -0.131300   -0.037610
O    -0.797379    0.352581   -0.270480   -0.063503   -0.000330   -0.002406
10
* Frequency(13)  882.8595
C    -2.091468   -1.644805   -0.034014    0.044199    0.266342   -0.033321
C    -0.790710   -0.841389   -0.093374   -0.179976   -0.001450   -0.015766
H    -2.912244   -0.919394   -0.122800   -0.554354   -0.488072    0.063554
H    -2.204315   -2.206463    0.908290    0.857154    0.106633   -0.073650
H    -2.167271   -2.369042   -0.862666    0.768538    0.088934    0.094432
C     0.474717   -1.612887    0.078009    0.040569   -0.264628    0.045558
H     0.456785   -2.090570    1.071921    0.767264   -0.067170    0.119783
H     1.372384   -0.989544   -0.027614   -0.549566    0.493075   -0.086277
H     0.487778   -2.439353   -0.651829    0.853361   -0.131300   -0.037610
O    -0.790062    0.352619   -0.270203   -0.063503   -0.000330   -0.002406
10
* Frequency(13)  882.8595
C    -2.096284   -1.673829   -0.030383    0.044199    0.266342   -0.033321
C    -0.771098   -0.841231   -0.091656   -0.179976   -0.001450   -0.015766
H    -2.851834   -0.866207   -0.129726   -0.554354   -0.488072    0.063554
H    -2.297722   -2.218083    0.916316    0.857154    0.106633   -0.073650
H    -2.251022   -2.378733   -0.872957    0.768538    0.088934    0.094432
C     0.470296   -1.584050    0.073044    0.040569   -0.264628    0.045558
H     0.373174   -2.083250    1.058868    0.767264   -0.067170    0.119783
H     1.432272   -1.043276   -0.018212   -0.549566    0.493075   -0.086277
H     0.394785   -2.425044   -0.647731    0.853361   -0.131300   -0.037610
O    -0.783142    0.352655   -0.269940   -0.063503   -0.000330   -0.002406
10
* Frequency(13)  882.8595
C    -2.100303   -1.698046   -0.027353    0.044199    0.266342   -0.033321
C    -0.754734   -0.841099   -0.090222   -0.179976   -0.001450   -0.015766
H    -2.801431   -0.821831   -0.135504   -0.554354   -0.488072    0.063554
H    -2.375656   -2.227779    0.923012    0.857154    0.106633   -0.073650
H    -2.320899   -2.386819   -0.881543    0.768538    0.088934    0.094432
C     0.466607   -1.559989    0.068902    0.040569   -0.264628    0.045558
H     0.303413   -2.077143    1.047977    0.767264   -0.067170    0.119783
H     1.482239   -1.088107   -0.010367   -0.549566    0.493075   -0.086277
H     0.317196   -2.413106   -0.644311    0.853361   -0.131300   -0.037610
O    -0.777368    0.352685   -0.269722   -0.063503   -0.000330   -0.002406
10
* Frequency(13)  882.8595
C    -2.103088   -1.714830   -0.025253    0.044199    0.266342   -0.033321
C    -0.743392   -0.841008   -0.089229   -0.179976   -0.001450   -0.015766
H    -2.766497   -0.791074   -0.139509   -0.554354   -0.488072    0.063554
H    -2.429672   -2.234498    0.927653    0.857154    0.106633   -0.073650
H    -2.369330   -2.392423   -0.887493    0.768538    0.088934    0.094432
C     0.464051   -1.543313    0.066031    0.040569   -0.264628    0.045558
H     0.255062   -2.072910    1.040428    0.767264   -0.067170    0.119783
H     1.516871   -1.119179   -0.004930   -0.549566    0.493075   -0.086277
H     0.263419   -2.404832   -0.641941    0.853361   -0.131300   -0.037610
O    -0.773366    0.352706   -0.269570   -0.063503   -0.000330   -0.002406
10
* Frequency(13)  882.8595
C    -2.104338   -1.722363   -0.024311    0.044199    0.266342   -0.033321
C    -0.738302   -0.840967   -0.088783   -0.179976   -0.001450   -0.015766
H    -2.750818   -0.777269   -0.141307   -0.554354   -0.488072    0.063554
H    -2.453915   -2.237514    0.929736    0.857154    0.106633   -0.073650
H    -2.391067   -2.394939   -0.890164    0.768538    0.088934    0.094432
C     0.462903   -1.535829    0.064742    0.040569   -0.264628    0.045558
H     0.233361   -2.071010    1.037041    0.767264   -0.067170    0.119783
H     1.532415   -1.133125   -0.002490   -0.549566    0.493075   -0.086277
H     0.239283   -2.401118   -0.640878    0.853361   -0.131300   -0.037610
O    -0.771570    0.352715   -0.269502   -0.063503   -0.000330   -0.002406
10
* Frequency(13)  882.8595
C    -2.103918   -1.719829   -0.024628    0.044199    0.266342   -0.033321
C    -0.740014   -0.840980   -0.088933   -0.179976   -0.001450   -0.015766
H    -2.756092   -0.781913   -0.140702   -0.554354   -0.488072    0.063554
H    -2.445760   -2.236500    0.929036    0.857154    0.106633   -0.073650
H    -2.383755   -2.394092   -0.889266    0.768538    0.088934    0.094432
C     0.463289   -1.538346    0.065176    0.040569   -0.264628    0.045558
H     0.240661   -2.071649    1.038180    0.767264   -0.067170    0.119783
H     1.527187   -1.128434   -0.003311   -0.549566    0.493075   -0.086277
H     0.247402   -2.402368   -0.641235    0.853361   -0.131300   -0.037610
O    -0.772175    0.352712   -0.269525   -0.063503   -0.000330   -0.002406
10
* Frequency(13)  882.8595
C    -2.101872   -1.707502   -0.026170    0.044199    0.266342   -0.033321
C    -0.748344   -0.841047   -0.089662   -0.179976   -0.001450   -0.015766
H    -2.781749   -0.804502   -0.137761   -0.554354   -0.488072    0.063554
H    -2.406089   -2.231565    0.925627    0.857154    0.106633   -0.073650
H    -2.348186   -2.389976   -0.884895    0.768538    0.088934    0.094432
C     0.465167   -1.550594    0.067284    0.040569   -0.264628    0.045558
H     0.276171   -2.074758    1.043724    0.767264   -0.067170    0.119783
H     1.501752   -1.105614   -0.007304   -0.549566    0.493075   -0.086277
H     0.286897   -2.408445   -0.642976    0.853361   -0.131300   -0.037610
O    -0.775114    0.352697   -0.269636   -0.063503   -0.000330   -0.002406
10
* Frequency(13)  882.8595
C    -2.098423   -1.686718   -0.028770    0.044199    0.266342   -0.033321
C    -0.762388   -0.841161   -0.090893   -0.179976   -0.001450   -0.015766
H    -2.825007   -0.842588   -0.132801   -0.554354   -0.488072    0.063554
H    -2.339202   -2.223244    0.919880    0.857154    0.106633   -0.073650
H    -2.288214   -2.383037   -0.877527    0.768538    0.088934    0.094432
C     0.468333   -1.571244    0.070839    0.040569   -0.264628    0.045558
H     0.336044   -2.079999    1.053071    0.767264   -0.067170    0.119783
H     1.458867   -1.067137   -0.014037   -0.549566    0.493075   -0.086277
H     0.353488   -2.418690   -0.645911    0.853361   -0.131300   -0.037610
O    -0.780069    0.352671   -0.269824   -0.063503   -0.000330   -0.002406
10
* Frequency(13)  882.8595
C    -2.093944   -1.659730   -0.032146    0.044199    0.266342   -0.033321
C    -0.780625   -0.841307   -0.092490   -0.179976   -0.001450   -0.015766
H    -2.881180   -0.892044   -0.126362   -0.554354   -0.488072    0.063554
H    -2.252347   -2.212439    0.912417    0.857154    0.106633   -0.073650
H    -2.210338   -2.374025   -0.867958    0.768538    0.088934    0.094432
C     0.472443   -1.598058    0.075456    0.040569   -0.264628    0.045558
H     0.413791   -2.086806    1.065209    0.767264   -0.067170    0.119783
H     1.403179   -1.017174   -0.022779   -0.549566    0.493075   -0.086277
H     0.439959   -2.431995   -0.649722    0.853361   -0.131300   -0.037610
O    -0.786504    0.352638   -0.270068   -0.063503   -0.000330   -0.002406
10
* Frequency(13)  882.8595
C    -2.088921   -1.629462   -0.035933    0.044199    0.266342   -0.033321
C    -0.801078   -0.841472   -0.094282   -0.179976   -0.001450   -0.015766
H    -2.944179   -0.947511   -0.119139   -0.554354   -0.488072    0.063554
H    -2.154936   -2.200320    0.904047    0.857154    0.106633   -0.073650
H    -2.122997   -2.363918   -0.857226    0.768538    0.088934    0.094432
C     0.477054   -1.628132    0.080633    0.040569   -0.264628    0.045558
H     0.500986   -2.094439    1.078821    0.767264   -0.067170    0.119783
H     1.340724   -0.961139   -0.032584   -0.549566    0.493075   -0.086277
H     0.536939   -2.446917   -0.653996    0.853361   -0.131300   -0.037610
O    -0.793721    0.352600   -0.270341   -0.063503   -0.000330   -0.002406
