10
* (null), Energy   -1000.0000000
C    -2.088921   -1.629462   -0.035933   -0.286675   -0.116397    0.000204
C    -0.801078   -0.841472   -0.094282    0.329732   -0.000854    0.008931
H    -2.944179   -0.947511   -0.119139    0.233929    0.531620    0.018325
H    -2.154936   -2.200320    0.904047    0.732138    0.260759    0.295182
H    -2.122997   -2.363918   -0.857226    0.805775    0.174617   -0.295937
C     0.477054   -1.628132    0.080633   -0.289826    0.117796   -0.035640
H     0.500986   -2.094439    1.078821    0.825629   -0.274181   -0.236717
H     1.340724   -0.961139   -0.032584    0.236049   -0.519056    0.179660
H     0.536939   -2.446917   -0.653996    0.744028   -0.182596    0.375931
O    -0.793721    0.352600   -0.270341   -0.040142    0.000148   -0.001299
10
* Frequency(18) 1379.9557
C    -2.121500   -1.642690   -0.035910   -0.286675   -0.116397    0.000204
C    -0.763606   -0.841569   -0.093267    0.329732   -0.000854    0.008931
H    -2.917594   -0.887095   -0.117056    0.233929    0.531620    0.018325
H    -2.071732   -2.170686    0.937593    0.732138    0.260759    0.295182
H    -2.031425   -2.344074   -0.890858    0.805775    0.174617   -0.295937
C     0.444117   -1.614745    0.076583   -0.289826    0.117796   -0.035640
H     0.594815   -2.125598    1.051920    0.825629   -0.274181   -0.236717
H     1.367550   -1.020127   -0.012167    0.236049   -0.519056    0.179660
H     0.621494   -2.467668   -0.611274    0.744028   -0.182596    0.375931
O    -0.798282    0.352617   -0.270489   -0.040142    0.000148   -0.001299
10
* Frequency(18) 1379.9557
C    -2.150549   -1.654484   -0.035889   -0.286675   -0.116397    0.000204
C    -0.730194   -0.841656   -0.092362    0.329732   -0.000854    0.008931
H    -2.893890   -0.833226   -0.115199    0.233929    0.531620    0.018325
H    -1.997545   -2.144264    0.967503    0.732138    0.260759    0.295182
H    -1.949776   -2.326380   -0.920845    0.805775    0.174617   -0.295937
C     0.414749   -1.602809    0.072972   -0.289826    0.117796   -0.035640
H     0.678475   -2.153381    1.027933    0.825629   -0.274181   -0.236717
H     1.391469   -1.072722    0.006038    0.236049   -0.519056    0.179660
H     0.696886   -2.486170   -0.573181    0.744028   -0.182596    0.375931
O    -0.802350    0.352632   -0.270620   -0.040142    0.000148   -0.001299
10
* Frequency(18) 1379.9557
C    -2.172919   -1.663567   -0.035873   -0.286675   -0.116397    0.000204
C    -0.704464   -0.841723   -0.091665    0.329732   -0.000854    0.008931
H    -2.875636   -0.791742   -0.113769    0.233929    0.531620    0.018325
H    -1.940414   -2.123916    0.990538    0.732138    0.260759    0.295182
H    -1.886899   -2.312754   -0.943938    0.805775    0.174617   -0.295937
C     0.392132   -1.593617    0.070190   -0.289826    0.117796   -0.035640
H     0.742902   -2.174776    1.009461    0.825629   -0.274181   -0.236717
H     1.409888   -1.113226    0.020058    0.236049   -0.519056    0.179660
H     0.754945   -2.500419   -0.543845    0.744028   -0.182596    0.375931
O    -0.805482    0.352643   -0.270722   -0.040142    0.000148   -0.001299
10
* Frequency(18) 1379.9557
C    -2.186187   -1.668954   -0.035864   -0.286675   -0.116397    0.000204
C    -0.689204   -0.841762   -0.091252    0.329732   -0.000854    0.008931
H    -2.864809   -0.767138   -0.112921    0.233929    0.531620    0.018325
H    -1.906529   -2.111847    1.004199    0.732138    0.260759    0.295182
H    -1.849606   -2.304673   -0.957635    0.805775    0.174617   -0.295937
C     0.378719   -1.588165    0.068541   -0.289826    0.117796   -0.035640
H     0.781114   -2.187466    0.998506    0.825629   -0.274181   -0.236717
H     1.420813   -1.137249    0.028373    0.236049   -0.519056    0.179660
H     0.789380   -2.508870   -0.526447    0.744028   -0.182596    0.375931
O    -0.807340    0.352650   -0.270782   -0.040142    0.000148   -0.001299
10
* Frequency(18) 1379.9557
C    -2.188915   -1.670062   -0.035862   -0.286675   -0.116397    0.000204
C    -0.686066   -0.841770   -0.091167    0.329732   -0.000854    0.008931
H    -2.862584   -0.762080   -0.112747    0.233929    0.531620    0.018325
H    -1.899563   -2.109366    1.007008    0.732138    0.260759    0.295182
H    -1.841939   -2.303011   -0.960450    0.805775    0.174617   -0.295937
C     0.375961   -1.587044    0.068202   -0.289826    0.117796   -0.035640
H     0.788969   -2.190075    0.996253    0.825629   -0.274181   -0.236717
H     1.423059   -1.142188    0.030082    0.236049   -0.519056    0.179660
H     0.796459   -2.510607   -0.522870    0.744028   -0.182596    0.375931
O    -0.807722    0.352652   -0.270794   -0.040142    0.000148   -0.001299
10
* Frequency(18) 1379.9557
C    -2.180806   -1.666769   -0.035868   -0.286675   -0.116397    0.000204
C    -0.695392   -0.841746   -0.091419    0.329732   -0.000854    0.008931
H    -2.869200   -0.777116   -0.113265    0.233929    0.531620    0.018325
H    -1.920271   -2.116742    0.998659    0.732138    0.260759    0.295182
H    -1.864730   -2.307950   -0.952080    0.805775    0.174617   -0.295937
C     0.384158   -1.590376    0.069210   -0.289826    0.117796   -0.035640
H     0.765617   -2.182320    1.002949    0.825629   -0.274181   -0.236717
H     1.416383   -1.127507    0.025001    0.236049   -0.519056    0.179660
H     0.775415   -2.505442   -0.533503    0.744028   -0.182596    0.375931
O    -0.806587    0.352648   -0.270758   -0.040142    0.000148   -0.001299
10
* Frequency(18) 1379.9557
C    -2.162741   -1.659434   -0.035881   -0.286675   -0.116397    0.000204
C    -0.716171   -0.841692   -0.091982    0.329732   -0.000854    0.008931
H    -2.883942   -0.810617   -0.114420    0.233929    0.531620    0.018325
H    -1.966408   -2.133174    0.980057    0.732138    0.260759    0.295182
H    -1.915508   -2.318954   -0.933431    0.805775    0.174617   -0.295937
C     0.402423   -1.597799    0.071456   -0.289826    0.117796   -0.035640
H     0.713588   -2.165042    1.017866    0.825629   -0.274181   -0.236717
H     1.401507   -1.094797    0.013679    0.236049   -0.519056    0.179660
H     0.728529   -2.493936   -0.557193    0.744028   -0.182596    0.375931
O    -0.804057    0.352638   -0.270676   -0.040142    0.000148   -0.001299
10
* Frequency(18) 1379.9557
C    -2.136676   -1.648851   -0.035899   -0.286675   -0.116397    0.000204
C    -0.746151   -0.841615   -0.092794    0.329732   -0.000854    0.008931
H    -2.905211   -0.858953   -0.116086    0.233929    0.531620    0.018325
H    -2.032975   -2.156883    0.953219    0.732138    0.260759    0.295182
H    -1.988770   -2.334830   -0.906524    0.805775    0.174617   -0.295937
C     0.428774   -1.608509    0.074696   -0.289826    0.117796   -0.035640
H     0.638521   -2.140113    1.039389    0.825629   -0.274181   -0.236717
H     1.380045   -1.047604   -0.002656    0.236049   -0.519056    0.179660
H     0.660880   -2.477334   -0.591373    0.744028   -0.182596    0.375931
O    -0.800407    0.352625   -0.270558   -0.040142    0.000148   -0.001299
10
* Frequency(18) 1379.9557
C    -2.105436   -1.636167   -0.035921   -0.286675   -0.116397    0.000204
C    -0.782083   -0.841521   -0.093767    0.329732   -0.000854    0.008931
H    -2.930703   -0.916885   -0.118083    0.233929    0.531620    0.018325
H    -2.112759   -2.185298    0.921052    0.732138    0.260759    0.295182
H    -2.076578   -2.353859   -0.874274    0.805775    0.174617   -0.295937
C     0.460357   -1.621346    0.078580   -0.289826    0.117796   -0.035640
H     0.548549   -2.110234    1.065184    0.825629   -0.274181   -0.236717
H     1.354322   -0.991040   -0.022234    0.236049   -0.519056    0.179660
H     0.579801   -2.457436   -0.632339    0.744028   -0.182596    0.375931
O    -0.796033    0.352609   -0.270416   -0.040142    0.000148   -0.001299
10
* Frequency(18) 1379.9557
C    -2.072407   -1.622756   -0.035945   -0.286675   -0.116397    0.000204
C    -0.820074   -0.841423   -0.094796    0.329732   -0.000854    0.008931
H    -2.957655   -0.978137   -0.120195    0.233929    0.531620    0.018325
H    -2.197113   -2.215342    0.887042    0.732138    0.260759    0.295182
H    -2.169417   -2.373978   -0.840178    0.805775    0.174617   -0.295937
C     0.493750   -1.634918    0.082686   -0.289826    0.117796   -0.035640
H     0.453423   -2.078644    1.092458    0.825629   -0.274181   -0.236717
H     1.327126   -0.931237   -0.042934    0.236049   -0.519056    0.179660
H     0.494077   -2.436398   -0.675653    0.744028   -0.182596    0.375931
O    -0.791408    0.352592   -0.270266   -0.040142    0.000148   -0.001299
10
* Frequency(18) 1379.9557
C    -2.041167   -1.610072   -0.035967   -0.286675   -0.116397    0.000204
C    -0.856006   -0.841330   -0.095770    0.329732   -0.000854    0.008931
H    -2.983147   -1.036069   -0.122192    0.233929    0.531620    0.018325
H    -2.276897   -2.243758    0.854875    0.732138    0.260759    0.295182
H    -2.257225   -2.393006   -0.807928    0.805775    0.174617   -0.295937
C     0.525334   -1.647755    0.086570   -0.289826    0.117796   -0.035640
H     0.363452   -2.048766    1.118254    0.825629   -0.274181   -0.236717
H     1.301403   -0.874673   -0.062512    0.236049   -0.519056    0.179660
H     0.412997   -2.416500   -0.716619    0.744028   -0.182596    0.375931
O    -0.787034    0.352575   -0.270125   -0.040142    0.000148   -0.001299
10
* Frequency(18) 1379.9557
C    -2.015102   -1.599489   -0.035986   -0.286675   -0.116397    0.000204
C    -0.885986   -0.841252   -0.096582    0.329732   -0.000854    0.008931
H    -3.004416   -1.084405   -0.123858    0.233929    0.531620    0.018325
H    -2.343464   -2.267467    0.828037    0.732138    0.260759    0.295182
H    -2.330487   -2.408883   -0.781021    0.805775    0.174617   -0.295937
C     0.551685   -1.658465    0.089811   -0.289826    0.117796   -0.035640
H     0.288384   -2.023837    1.139777    0.825629   -0.274181   -0.236717
H     1.279941   -0.827480   -0.078847    0.236049   -0.519056    0.179660
H     0.345349   -2.399898   -0.750800    0.744028   -0.182596    0.375931
O    -0.783384    0.352562   -0.270007   -0.040142    0.000148   -0.001299
10
* Frequency(18) 1379.9557
C    -1.997036   -1.592154   -0.035999   -0.286675   -0.116397    0.000204
C    -0.906764   -0.841198   -0.097144    0.329732   -0.000854    0.008931
H    -3.019158   -1.117906   -0.125013    0.233929    0.531620    0.018325
H    -2.389601   -2.283899    0.809435    0.732138    0.260759    0.295182
H    -2.381265   -2.419887   -0.762372    0.805775    0.174617   -0.295937
C     0.569949   -1.665888    0.092057   -0.289826    0.117796   -0.035640
H     0.236355   -2.006558    1.154694    0.825629   -0.274181   -0.236717
H     1.265066   -0.794771   -0.090169    0.236049   -0.519056    0.179660
H     0.298462   -2.388391   -0.774490    0.744028   -0.182596    0.375931
O    -0.780854    0.352553   -0.269925   -0.040142    0.000148   -0.001299
10
* Frequency(18) 1379.9557
C    -1.988928   -1.588862   -0.036004   -0.286675   -0.116397    0.000204
C    -0.916091   -0.841174   -0.097397    0.329732   -0.000854    0.008931
H    -3.025774   -1.132942   -0.125531    0.233929    0.531620    0.018325
H    -2.410309   -2.291274    0.801086    0.732138    0.260759    0.295182
H    -2.404056   -2.424825   -0.754002    0.805775    0.174617   -0.295937
C     0.578147   -1.669220    0.093065   -0.289826    0.117796   -0.035640
H     0.213003   -1.998804    1.161389    0.825629   -0.274181   -0.236717
H     1.258389   -0.780090   -0.095250    0.236049   -0.519056    0.179660
H     0.277418   -2.383226   -0.785122    0.744028   -0.182596    0.375931
O    -0.779719    0.352548   -0.269888   -0.040142    0.000148   -0.001299
10
* Frequency(18) 1379.9557
C    -1.991655   -1.589969   -0.036002   -0.286675   -0.116397    0.000204
C    -0.912953   -0.841182   -0.097312    0.329732   -0.000854    0.008931
H    -3.023549   -1.127884   -0.125357    0.233929    0.531620    0.018325
H    -2.403343   -2.288793    0.803895    0.732138    0.260759    0.295182
H    -2.396389   -2.423164   -0.756818    0.805775    0.174617   -0.295937
C     0.575389   -1.668099    0.092726   -0.289826    0.117796   -0.035640
H     0.220858   -2.001412    1.159137    0.825629   -0.274181   -0.236717
H     1.260635   -0.785028   -0.093541    0.236049   -0.519056    0.179660
H     0.284497   -2.384964   -0.781546    0.744028   -0.182596    0.375931
O    -0.780101    0.352550   -0.269900   -0.040142    0.000148   -0.001299
10
* Frequency(18) 1379.9557
C    -2.004923   -1.595356   -0.035993   -0.286675   -0.116397    0.000204
C    -0.897693   -0.841222   -0.096899    0.329732   -0.000854    0.008931
H    -3.012722   -1.103280   -0.124508    0.233929    0.531620    0.018325
H    -2.369459   -2.276725    0.817556    0.732138    0.260759    0.295182
H    -2.359096   -2.415082   -0.770514    0.805775    0.174617   -0.295937
C     0.561975   -1.662647    0.091076   -0.289826    0.117796   -0.035640
H     0.259070   -2.014102    1.148181    0.825629   -0.274181   -0.236717
H     1.271560   -0.809051   -0.085226    0.236049   -0.519056    0.179660
H     0.318932   -2.393415   -0.764147    0.744028   -0.182596    0.375931
O    -0.781959    0.352557   -0.269960   -0.040142    0.000148   -0.001299
10
* Frequency(18) 1379.9557
C    -2.027294   -1.604439   -0.035977   -0.286675   -0.116397    0.000204
C    -0.871962   -0.841289   -0.096202    0.329732   -0.000854    0.008931
H    -2.994468   -1.061796   -0.123078    0.233929    0.531620    0.018325
H    -2.312327   -2.256377    0.840590    0.732138    0.260759    0.295182
H    -2.296219   -2.401456   -0.793607    0.805775    0.174617   -0.295937
C     0.539359   -1.653455    0.088295   -0.289826    0.117796   -0.035640
H     0.323497   -2.035497    1.129709    0.825629   -0.274181   -0.236717
H     1.289980   -0.849555   -0.071206    0.236049   -0.519056    0.179660
H     0.376992   -2.407663   -0.734812    0.744028   -0.182596    0.375931
O    -0.785091    0.352568   -0.270062   -0.040142    0.000148   -0.001299
10
* Frequency(18) 1379.9557
C    -2.056342   -1.616234   -0.035956   -0.286675   -0.116397    0.000204
C    -0.838551   -0.841375   -0.095297    0.329732   -0.000854    0.008931
H    -2.970764   -1.007927   -0.121222    0.233929    0.531620    0.018325
H    -2.238140   -2.229954    0.870501    0.732138    0.260759    0.295182
H    -2.214570   -2.383763   -0.823594    0.805775    0.174617   -0.295937
C     0.509991   -1.641519    0.084684   -0.289826    0.117796   -0.035640
H     0.407158   -2.063280    1.105723    0.825629   -0.274181   -0.236717
H     1.313898   -0.902151   -0.053001    0.236049   -0.519056    0.179660
H     0.452384   -2.426166   -0.696719    0.744028   -0.182596    0.375931
O    -0.789159    0.352583   -0.270193   -0.040142    0.000148   -0.001299
10
* Frequency(18) 1379.9557
C    -2.088921   -1.629462   -0.035933   -0.286675   -0.116397    0.000204
C    -0.801078   -0.841472   -0.094282    0.329732   -0.000854    0.008931
H    -2.944179   -0.947511   -0.119139    0.233929    0.531620    0.018325
H    -2.154936   -2.200320    0.904047    0.732138    0.260759    0.295182
H    -2.122997   -2.363918   -0.857226    0.805775    0.174617   -0.295937
C     0.477054   -1.628132    0.080633   -0.289826    0.117796   -0.035640
H     0.500986   -2.094439    1.078821    0.825629   -0.274181   -0.236717
H     1.340724   -0.961139   -0.032584    0.236049   -0.519056    0.179660
H     0.536939   -2.446917   -0.653996    0.744028   -0.182596    0.375931
O    -0.793721    0.352600   -0.270341   -0.040142    0.000148   -0.001299
