10
* (null), Energy   -1000.0000000
C    -2.088921   -1.629462   -0.035933    0.050658   -0.067859    0.010281
C    -0.801078   -0.841472   -0.094282    0.000542    0.001934   -0.000407
H    -2.944179   -0.947511   -0.119139   -0.636738    0.509325   -0.061632
H    -2.154936   -2.200320    0.904047    0.019362    0.143444   -0.251282
H    -2.122997   -2.363918   -0.857226    0.010945    0.158595    0.189971
C     0.477054   -1.628132    0.080633    0.100927    0.132985   -0.019331
H     0.500986   -2.094439    1.078821    0.018722   -0.200502    0.469017
H     1.340724   -0.961139   -0.032584   -1.254638   -0.971625    0.166088
H     0.536939   -2.446917   -0.653996    0.037510   -0.425381   -0.402157
O    -0.793721    0.352600   -0.270341   -0.000495   -0.000814    0.000169
10
* Frequency(28) 3197.2488
C    -2.083164   -1.637174   -0.034765    0.050658   -0.067859    0.010281
C    -0.801017   -0.841252   -0.094328    0.000542    0.001934   -0.000407
H    -3.016541   -0.889629   -0.126143   -0.636738    0.509325   -0.061632
H    -2.152736   -2.184019    0.875490    0.019362    0.143444   -0.251282
H    -2.121754   -2.345895   -0.835637    0.010945    0.158595    0.189971
C     0.488524   -1.613019    0.078436    0.100927    0.132985   -0.019331
H     0.503114   -2.117225    1.132123    0.018722   -0.200502    0.469017
H     1.198141   -1.071559   -0.013709   -1.254638   -0.971625    0.166088
H     0.541202   -2.495259   -0.699699    0.037510   -0.425381   -0.402157
O    -0.793777    0.352508   -0.270322   -0.000495   -0.000814    0.000169
10
* Frequency(28) 3197.2488
C    -2.078031   -1.644050   -0.033723    0.050658   -0.067859    0.010281
C    -0.800962   -0.841056   -0.094369    0.000542    0.001934   -0.000407
H    -3.081062   -0.838019   -0.132388   -0.636738    0.509325   -0.061632
H    -2.150774   -2.169483    0.850028    0.019362    0.143444   -0.251282
H    -2.120644   -2.329824   -0.816387    0.010945    0.158595    0.189971
C     0.498751   -1.599544    0.076478    0.100927    0.132985   -0.019331
H     0.505011   -2.137542    1.179648    0.018722   -0.200502    0.469017
H     1.071009   -1.170013    0.003121   -1.254638   -0.971625    0.166088
H     0.545003   -2.538363   -0.740450    0.037510   -0.425381   -0.402157
O    -0.793827    0.352425   -0.270305   -0.000495   -0.000814    0.000169
10
* Frequency(28) 3197.2488
C    -2.074078   -1.649345   -0.032921    0.050658   -0.067859    0.010281
C    -0.800920   -0.840906   -0.094401    0.000542    0.001934   -0.000407
H    -3.130749   -0.798275   -0.137198   -0.636738    0.509325   -0.061632
H    -2.149263   -2.158290    0.830419    0.019362    0.143444   -0.251282
H    -2.119790   -2.317449   -0.801563    0.010945    0.158595    0.189971
C     0.506626   -1.589166    0.074969    0.100927    0.132985   -0.019331
H     0.506472   -2.153188    1.216247    0.018722   -0.200502    0.469017
H     0.973105   -1.245833    0.016081   -1.254638   -0.971625    0.166088
H     0.547930   -2.571557   -0.771832    0.037510   -0.425381   -0.402157
O    -0.793866    0.352362   -0.270292   -0.000495   -0.000814    0.000169
10
* Frequency(28) 3197.2488
C    -2.071734   -1.652486   -0.032445    0.050658   -0.067859    0.010281
C    -0.800894   -0.840816   -0.094420    0.000542    0.001934   -0.000407
H    -3.160218   -0.774702   -0.140050   -0.636738    0.509325   -0.061632
H    -2.148367   -2.151651    0.818790    0.019362    0.143444   -0.251282
H    -2.119284   -2.310108   -0.792771    0.010945    0.158595    0.189971
C     0.511297   -1.583012    0.074074    0.100927    0.132985   -0.019331
H     0.507338   -2.162468    1.237954    0.018722   -0.200502    0.469017
H     0.915038   -1.290801    0.023768   -1.254638   -0.971625    0.166088
H     0.549666   -2.591244   -0.790444    0.037510   -0.425381   -0.402157
O    -0.793889    0.352324   -0.270284   -0.000495   -0.000814    0.000169
10
* Frequency(28) 3197.2488
C    -2.071252   -1.653131   -0.032347    0.050658   -0.067859    0.010281
C    -0.800889   -0.840798   -0.094424    0.000542    0.001934   -0.000407
H    -3.166276   -0.769856   -0.140637   -0.636738    0.509325   -0.061632
H    -2.148182   -2.150286    0.816399    0.019362    0.143444   -0.251282
H    -2.119180   -2.308599   -0.790963    0.010945    0.158595    0.189971
C     0.512258   -1.581746    0.073890    0.100927    0.132985   -0.019331
H     0.507516   -2.164375    1.242416    0.018722   -0.200502    0.469017
H     0.903101   -1.300046    0.025348   -1.254638   -0.971625    0.166088
H     0.550023   -2.595291   -0.794270    0.037510   -0.425381   -0.402157
O    -0.793893    0.352316   -0.270282   -0.000495   -0.000814    0.000169
10
* Frequency(28) 3197.2488
C    -2.072685   -1.651212   -0.032638    0.050658   -0.067859    0.010281
C    -0.800905   -0.840852   -0.094412    0.000542    0.001934   -0.000407
H    -3.148267   -0.784262   -0.138893   -0.636738    0.509325   -0.061632
H    -2.148730   -2.154344    0.823506    0.019362    0.143444   -0.251282
H    -2.119489   -2.313085   -0.796336    0.010945    0.158595    0.189971
C     0.509403   -1.585508    0.074437    0.100927    0.132985   -0.019331
H     0.506987   -2.158704    1.229151    0.018722   -0.200502    0.469017
H     0.938587   -1.272565    0.020650   -1.254638   -0.971625    0.166088
H     0.548962   -2.583260   -0.782896    0.037510   -0.425381   -0.402157
O    -0.793879    0.352339   -0.270287   -0.000495   -0.000814    0.000169
10
* Frequency(28) 3197.2488
C    -2.075877   -1.646936   -0.033286    0.050658   -0.067859    0.010281
C    -0.800939   -0.840974   -0.094387    0.000542    0.001934   -0.000407
H    -3.108141   -0.816358   -0.135010   -0.636738    0.509325   -0.061632
H    -2.149950   -2.163383    0.839341    0.019362    0.143444   -0.251282
H    -2.120179   -2.323079   -0.808308    0.010945    0.158595    0.189971
C     0.503043   -1.593888    0.075655    0.100927    0.132985   -0.019331
H     0.505807   -2.146069    1.199595    0.018722   -0.200502    0.469017
H     1.017651   -1.211335    0.010184   -1.254638   -0.971625    0.166088
H     0.546598   -2.556454   -0.757553    0.037510   -0.425381   -0.402157
O    -0.793848    0.352391   -0.270298   -0.000495   -0.000814    0.000169
10
* Frequency(28) 3197.2488
C    -2.080483   -1.640766   -0.034221    0.050658   -0.067859    0.010281
C    -0.800988   -0.841150   -0.094350    0.000542    0.001934   -0.000407
H    -3.050248   -0.862667   -0.129406   -0.636738    0.509325   -0.061632
H    -2.151711   -2.176425    0.862188    0.019362    0.143444   -0.251282
H    -2.121174   -2.337499   -0.825580    0.010945    0.158595    0.189971
C     0.493866   -1.605979    0.077413    0.100927    0.132985   -0.019331
H     0.504105   -2.127839    1.156951    0.018722   -0.200502    0.469017
H     1.131724   -1.122993   -0.004917   -1.254638   -0.971625    0.166088
H     0.543187   -2.517777   -0.720988    0.037510   -0.425381   -0.402157
O    -0.793803    0.352465   -0.270313   -0.000495   -0.000814    0.000169
10
* Frequency(28) 3197.2488
C    -2.086003   -1.633371   -0.035341    0.050658   -0.067859    0.010281
C    -0.801047   -0.841361   -0.094305    0.000542    0.001934   -0.000407
H    -2.980860   -0.918170   -0.122689   -0.636738    0.509325   -0.061632
H    -2.153821   -2.192057    0.889571    0.019362    0.143444   -0.251282
H    -2.122367   -2.354782   -0.846282    0.010945    0.158595    0.189971
C     0.482868   -1.620471    0.079520    0.100927    0.132985   -0.019331
H     0.502065   -2.105990    1.105840    0.018722   -0.200502    0.469017
H     1.268447   -1.017112   -0.023016   -1.254638   -0.971625    0.166088
H     0.539100   -2.471422   -0.677164    0.037510   -0.425381   -0.402157
O    -0.793749    0.352553   -0.270331   -0.000495   -0.000814    0.000169
10
* Frequency(28) 3197.2488
C    -2.091840   -1.625553   -0.036525    0.050658   -0.067859    0.010281
C    -0.801110   -0.841584   -0.094258    0.000542    0.001934   -0.000407
H    -2.907498   -0.976852   -0.115588   -0.636738    0.509325   -0.061632
H    -2.156052   -2.208584    0.918523    0.019362    0.143444   -0.251282
H    -2.123628   -2.373055   -0.868170    0.010945    0.158595    0.189971
C     0.471240   -1.635793    0.081747    0.100927    0.132985   -0.019331
H     0.499908   -2.082889    1.051802    0.018722   -0.200502    0.469017
H     1.413001   -0.905165   -0.042152   -1.254638   -0.971625    0.166088
H     0.534778   -2.422411   -0.630829    0.037510   -0.425381   -0.402157
O    -0.793692    0.352647   -0.270351   -0.000495   -0.000814    0.000169
10
* Frequency(28) 3197.2488
C    -2.097360   -1.618158   -0.037646    0.050658   -0.067859    0.010281
C    -0.801169   -0.841794   -0.094214    0.000542    0.001934   -0.000407
H    -2.838110   -1.032355   -0.108872   -0.636738    0.509325   -0.061632
H    -2.158162   -2.224215    0.945906    0.019362    0.143444   -0.251282
H    -2.124821   -2.390337   -0.888872    0.010945    0.158595    0.189971
C     0.460241   -1.650285    0.083854    0.100927    0.132985   -0.019331
H     0.497867   -2.061039    1.000692    0.018722   -0.200502    0.469017
H     1.549724   -0.799284   -0.060251   -1.254638   -0.971625    0.166088
H     0.530690   -2.376056   -0.587004    0.037510   -0.425381   -0.402157
O    -0.793638    0.352736   -0.270369   -0.000495   -0.000814    0.000169
10
* Frequency(28) 3197.2488
C    -2.101966   -1.611988   -0.038581    0.050658   -0.067859    0.010281
C    -0.801218   -0.841970   -0.094177    0.000542    0.001934   -0.000407
H    -2.780217   -1.078664   -0.103268   -0.636738    0.509325   -0.061632
H    -2.159922   -2.237258    0.968753    0.019362    0.143444   -0.251282
H    -2.125816   -2.404757   -0.906144    0.010945    0.158595    0.189971
C     0.451065   -1.662376    0.085611    0.100927    0.132985   -0.019331
H     0.496165   -2.042809    0.958048    0.018722   -0.200502    0.469017
H     1.663798   -0.710942   -0.075352   -1.254638   -0.971625    0.166088
H     0.527280   -2.337380   -0.550439    0.037510   -0.425381   -0.402157
O    -0.793593    0.352810   -0.270385   -0.000495   -0.000814    0.000169
10
* Frequency(28) 3197.2488
C    -2.105158   -1.607711   -0.039228    0.050658   -0.067859    0.010281
C    -0.801252   -0.842092   -0.094152    0.000542    0.001934   -0.000407
H    -2.740091   -1.110760   -0.099385   -0.636738    0.509325   -0.061632
H    -2.161142   -2.246297    0.984588    0.019362    0.143444   -0.251282
H    -2.126506   -2.414751   -0.918116    0.010945    0.158595    0.189971
C     0.444705   -1.670756    0.086829    0.100927    0.132985   -0.019331
H     0.494985   -2.030174    0.928492    0.018722   -0.200502    0.469017
H     1.742862   -0.649713   -0.085819   -1.254638   -0.971625    0.166088
H     0.524916   -2.310573   -0.525096    0.037510   -0.425381   -0.402157
O    -0.793562    0.352861   -0.270395   -0.000495   -0.000814    0.000169
10
* Frequency(28) 3197.2488
C    -2.106591   -1.605792   -0.039519    0.050658   -0.067859    0.010281
C    -0.801267   -0.842147   -0.094140    0.000542    0.001934   -0.000407
H    -2.722082   -1.125166   -0.097641   -0.636738    0.509325   -0.061632
H    -2.161690   -2.250354    0.991695    0.019362    0.143444   -0.251282
H    -2.126815   -2.419237   -0.923489    0.010945    0.158595    0.189971
C     0.441850   -1.674518    0.087376    0.100927    0.132985   -0.019331
H     0.494456   -2.024503    0.915226    0.018722   -0.200502    0.469017
H     1.778348   -0.622231   -0.090516   -1.254638   -0.971625    0.166088
H     0.523855   -2.298542   -0.513722    0.037510   -0.425381   -0.402157
O    -0.793548    0.352884   -0.270400   -0.000495   -0.000814    0.000169
10
* Frequency(28) 3197.2488
C    -2.106109   -1.606438   -0.039421    0.050658   -0.067859    0.010281
C    -0.801262   -0.842128   -0.094144    0.000542    0.001934   -0.000407
H    -2.728140   -1.120320   -0.098228   -0.636738    0.509325   -0.061632
H    -2.161506   -2.248989    0.989304    0.019362    0.143444   -0.251282
H    -2.126711   -2.417728   -0.921682    0.010945    0.158595    0.189971
C     0.442810   -1.673253    0.087192    0.100927    0.132985   -0.019331
H     0.494634   -2.026411    0.919688    0.018722   -0.200502    0.469017
H     1.766411   -0.631476   -0.088936   -1.254638   -0.971625    0.166088
H     0.524212   -2.302589   -0.517548    0.037510   -0.425381   -0.402157
O    -0.793553    0.352876   -0.270398   -0.000495   -0.000814    0.000169
10
* Frequency(28) 3197.2488
C    -2.103764   -1.609578   -0.038946    0.050658   -0.067859    0.010281
C    -0.801237   -0.842039   -0.094163    0.000542    0.001934   -0.000407
H    -2.757609   -1.096747   -0.101080   -0.636738    0.509325   -0.061632
H    -2.160609   -2.242351    0.977674    0.019362    0.143444   -0.251282
H    -2.126205   -2.410388   -0.912889    0.010945    0.158595    0.189971
C     0.447481   -1.667098    0.086297    0.100927    0.132985   -0.019331
H     0.495500   -2.035690    0.941395    0.018722   -0.200502    0.469017
H     1.708344   -0.676444   -0.081249   -1.254638   -0.971625    0.166088
H     0.525948   -2.322277   -0.536161    0.037510   -0.425381   -0.402157
O    -0.793576    0.352838   -0.270391   -0.000495   -0.000814    0.000169
10
* Frequency(28) 3197.2488
C    -2.099811   -1.614874   -0.038143    0.050658   -0.067859    0.010281
C    -0.801195   -0.841888   -0.094194    0.000542    0.001934   -0.000407
H    -2.807297   -1.057003   -0.105890   -0.636738    0.509325   -0.061632
H    -2.159099   -2.231157    0.958066    0.019362    0.143444   -0.251282
H    -2.125350   -2.398012   -0.898065    0.010945    0.158595    0.189971
C     0.455357   -1.656720    0.084789    0.100927    0.132985   -0.019331
H     0.496961   -2.051336    0.977995    0.018722   -0.200502    0.469017
H     1.610439   -0.752264   -0.068289   -1.254638   -0.971625    0.166088
H     0.528875   -2.355471   -0.567543    0.037510   -0.425381   -0.402157
O    -0.793614    0.352775   -0.270377   -0.000495   -0.000814    0.000169
10
* Frequency(28) 3197.2488
C    -2.094678   -1.621750   -0.037102    0.050658   -0.067859    0.010281
C    -0.801140   -0.841692   -0.094236    0.000542    0.001934   -0.000407
H    -2.871817   -1.005393   -0.112135   -0.636738    0.509325   -0.061632
H    -2.157137   -2.216622    0.932604    0.019362    0.143444   -0.251282
H    -2.124241   -2.381942   -0.878815    0.010945    0.158595    0.189971
C     0.465584   -1.643245    0.082830    0.100927    0.132985   -0.019331
H     0.498858   -2.071653    1.025520    0.018722   -0.200502    0.469017
H     1.483307   -0.850718   -0.051459   -1.254638   -0.971625    0.166088
H     0.532676   -2.398574   -0.608293    0.037510   -0.425381   -0.402157
O    -0.793664    0.352693   -0.270360   -0.000495   -0.000814    0.000169
10
* Frequency(28) 3197.2488
C    -2.088921   -1.629462   -0.035933    0.050658   -0.067859    0.010281
C    -0.801078   -0.841472   -0.094282    0.000542    0.001934   -0.000407
H    -2.944179   -0.947511   -0.119139   -0.636738    0.509325   -0.061632
H    -2.154936   -2.200320    0.904047    0.019362    0.143444   -0.251282
H    -2.122997   -2.363918   -0.857226    0.010945    0.158595    0.189971
C     0.477054   -1.628132    0.080633    0.100927    0.132985   -0.019331
H     0.500986   -2.094439    1.078821    0.018722   -0.200502    0.469017
H     1.340724   -0.961139   -0.032584   -1.254638   -0.971625    0.166088
H     0.536939   -2.446917   -0.653996    0.037510   -0.425381   -0.402157
O    -0.793721    0.352600   -0.270341   -0.000495   -0.000814    0.000169
