10
* (null), Energy   -1000.0000000
C    -2.088921   -1.629462   -0.035933   -0.033560    0.015246    0.191064
C    -0.801078   -0.841472   -0.094282   -0.000429    0.012797   -0.002532
H    -2.944179   -0.947511   -0.119139   -0.071421   -0.110432   -0.454962
H    -2.154936   -2.200320    0.904047   -0.748660   -0.510543   -0.193338
H    -2.122997   -2.363918   -0.857226    0.792042    0.438704   -0.242478
C     0.477054   -1.628132    0.080633    0.033829   -0.041275   -0.186930
H     0.500986   -2.094439    1.078821   -0.784854    0.499000    0.101741
H     1.340724   -0.961139   -0.032584    0.068357    0.025739    0.468000
H     0.536939   -2.446917   -0.653996    0.744106   -0.442229    0.336957
O    -0.793721    0.352600   -0.270341    0.000147    0.016219   -0.002206
10
* Frequency(12)  859.4733
C    -2.092735   -1.627729   -0.014220   -0.033560    0.015246    0.191064
C    -0.801127   -0.840018   -0.094570   -0.000429    0.012797   -0.002532
H    -2.952296   -0.960061   -0.170843   -0.071421   -0.110432   -0.454962
H    -2.240017   -2.258341    0.882075   -0.748660   -0.510543   -0.193338
H    -2.032986   -2.314062   -0.884782    0.792042    0.438704   -0.242478
C     0.480898   -1.632823    0.059390    0.033829   -0.041275   -0.186930
H     0.411792   -2.037730    1.090384   -0.784854    0.499000    0.101741
H     1.348493   -0.958214    0.020602    0.068357    0.025739    0.468000
H     0.621503   -2.497174   -0.615703    0.744106   -0.442229    0.336957
O    -0.793704    0.354443   -0.270592    0.000147    0.016219   -0.002206
10
* Frequency(12)  859.4733
C    -2.096136   -1.626184    0.005141   -0.033560    0.015246    0.191064
C    -0.801171   -0.838721   -0.094826   -0.000429    0.012797   -0.002532
H    -2.959533   -0.971251   -0.216944   -0.071421   -0.110432   -0.454962
H    -2.315879   -2.310074    0.862484   -0.748660   -0.510543   -0.193338
H    -1.952729   -2.269608   -0.909353    0.792042    0.438704   -0.242478
C     0.484326   -1.637005    0.040448    0.033829   -0.041275   -0.186930
H     0.332263   -1.987167    1.100693   -0.784854    0.499000    0.101741
H     1.355419   -0.955605    0.068024    0.068357    0.025739    0.468000
H     0.696903   -2.541984   -0.581559    0.744106   -0.442229    0.336957
O    -0.793689    0.356087   -0.270815    0.000147    0.016219   -0.002206
10
* Frequency(12)  859.4733
C    -2.098755   -1.624995    0.020050   -0.033560    0.015246    0.191064
C    -0.801204   -0.837722   -0.095024   -0.000429    0.012797   -0.002532
H    -2.965106   -0.979869   -0.252447   -0.071421   -0.110432   -0.454962
H    -2.374300   -2.349914    0.847397   -0.748660   -0.510543   -0.193338
H    -1.890923   -2.235374   -0.928274    0.792042    0.438704   -0.242478
C     0.486966   -1.640226    0.025861    0.033829   -0.041275   -0.186930
H     0.271017   -1.948228    1.108632   -0.784854    0.499000    0.101741
H     1.360753   -0.953597    0.104544    0.068357    0.025739    0.468000
H     0.754968   -2.576493   -0.555265    0.744106   -0.442229    0.336957
O    -0.793678    0.357352   -0.270988    0.000147    0.016219   -0.002206
10
* Frequency(12)  859.4733
C    -2.100308   -1.624289    0.028893   -0.033560    0.015246    0.191064
C    -0.801224   -0.837130   -0.095141   -0.000429    0.012797   -0.002532
H    -2.968412   -0.984980   -0.273503   -0.071421   -0.110432   -0.454962
H    -2.408949   -2.373543    0.838449   -0.748660   -0.510543   -0.193338
H    -1.854265   -2.215070   -0.939496    0.792042    0.438704   -0.242478
C     0.488532   -1.642136    0.017210    0.033829   -0.041275   -0.186930
H     0.234693   -1.925133    1.113341   -0.784854    0.499000    0.101741
H     1.363917   -0.952406    0.126204    0.068357    0.025739    0.468000
H     0.789407   -2.596960   -0.539670    0.744106   -0.442229    0.336957
O    -0.793671    0.358103   -0.271090    0.000147    0.016219   -0.002206
10
* Frequency(12)  859.4733
C    -2.100627   -1.624144    0.030711   -0.033560    0.015246    0.191064
C    -0.801228   -0.837008   -0.095165   -0.000429    0.012797   -0.002532
H    -2.969091   -0.986030   -0.277832   -0.071421   -0.110432   -0.454962
H    -2.416072   -2.378400    0.836610   -0.748660   -0.510543   -0.193338
H    -1.846729   -2.210896   -0.941804    0.792042    0.438704   -0.242478
C     0.488854   -1.642529    0.015431    0.033829   -0.041275   -0.186930
H     0.227226   -1.920386    1.114309   -0.784854    0.499000    0.101741
H     1.364567   -0.952161    0.130657    0.068357    0.025739    0.468000
H     0.796487   -2.601168   -0.536464    0.744106   -0.442229    0.336957
O    -0.793669    0.358257   -0.271111    0.000147    0.016219   -0.002206
10
* Frequency(12)  859.4733
C    -2.099678   -1.624575    0.025307   -0.033560    0.015246    0.191064
C    -0.801216   -0.837370   -0.095093   -0.000429    0.012797   -0.002532
H    -2.967071   -0.982907   -0.264964   -0.071421   -0.110432   -0.454962
H    -2.394897   -2.363960    0.842078   -0.748660   -0.510543   -0.193338
H    -1.869132   -2.223305   -0.934945    0.792042    0.438704   -0.242478
C     0.487897   -1.641362    0.020718    0.033829   -0.041275   -0.186930
H     0.249424   -1.934499    1.111431   -0.784854    0.499000    0.101741
H     1.362634   -0.952889    0.117420    0.068357    0.025739    0.468000
H     0.775440   -2.588660   -0.545994    0.744106   -0.442229    0.336957
O    -0.793674    0.357799   -0.271048    0.000147    0.016219   -0.002206
10
* Frequency(12)  859.4733
C    -2.097563   -1.625536    0.013266   -0.033560    0.015246    0.191064
C    -0.801189   -0.838177   -0.094934   -0.000429    0.012797   -0.002532
H    -2.962570   -0.975948   -0.236293   -0.071421   -0.110432   -0.454962
H    -2.347718   -2.331787    0.854262   -0.748660   -0.510543   -0.193338
H    -1.919044   -2.250950   -0.919665    0.792042    0.438704   -0.242478
C     0.485765   -1.638760    0.032498    0.033829   -0.041275   -0.186930
H     0.298884   -1.965945    1.105020   -0.784854    0.499000    0.101741
H     1.358326   -0.954511    0.087928    0.068357    0.025739    0.468000
H     0.728549   -2.560792   -0.567228    0.744106   -0.442229    0.336957
O    -0.793683    0.356777   -0.270909    0.000147    0.016219   -0.002206
10
* Frequency(12)  859.4733
C    -2.094512   -1.626922   -0.004105   -0.033560    0.015246    0.191064
C    -0.801150   -0.839340   -0.094704   -0.000429    0.012797   -0.002532
H    -2.956077   -0.965907   -0.194927   -0.071421   -0.110432   -0.454962
H    -2.279649   -2.285367    0.871840   -0.748660   -0.510543   -0.193338
H    -1.991058   -2.290838   -0.897618    0.792042    0.438704   -0.242478
C     0.482689   -1.635008    0.049494    0.033829   -0.041275   -0.186930
H     0.370244   -2.011315    1.095769   -0.784854    0.499000    0.101741
H     1.352111   -0.956851    0.045376    0.068357    0.025739    0.468000
H     0.660893   -2.520584   -0.597865    0.744106   -0.442229    0.336957
O    -0.793696    0.355302   -0.270709    0.000147    0.016219   -0.002206
10
* Frequency(12)  859.4733
C    -2.090855   -1.628584   -0.024926   -0.033560    0.015246    0.191064
C    -0.801103   -0.840735   -0.094428   -0.000429    0.012797   -0.002532
H    -2.948294   -0.953873   -0.145348   -0.071421   -0.110432   -0.454962
H    -2.198065   -2.229732    0.892909   -0.748660   -0.510543   -0.193338
H    -2.077369   -2.338645   -0.871195    0.792042    0.438704   -0.242478
C     0.479003   -1.630510    0.069865    0.033829   -0.041275   -0.186930
H     0.455772   -2.065693    1.084682   -0.784854    0.499000    0.101741
H     1.344662   -0.959656   -0.005623    0.068357    0.025739    0.468000
H     0.579805   -2.472393   -0.634585    0.744106   -0.442229    0.336957
O    -0.793712    0.353534   -0.270468    0.000147    0.016219   -0.002206
10
* Frequency(12)  859.4733
C    -2.086988   -1.630340   -0.046940   -0.033560    0.015246    0.191064
C    -0.801054   -0.842209   -0.094136   -0.000429    0.012797   -0.002532
H    -2.940065   -0.941149   -0.092929   -0.071421   -0.110432   -0.454962
H    -2.111807   -2.170909    0.915185   -0.748660   -0.510543   -0.193338
H    -2.168626   -2.389191   -0.843257    0.792042    0.438704   -0.242478
C     0.475105   -1.625754    0.091402    0.033829   -0.041275   -0.186930
H     0.546200   -2.123186    1.072960   -0.784854    0.499000    0.101741
H     1.336786   -0.962621   -0.059545    0.068357    0.025739    0.468000
H     0.494072   -2.421441   -0.673408    0.744106   -0.442229    0.336957
O    -0.793729    0.351666   -0.270214    0.000147    0.016219   -0.002206
10
* Frequency(12)  859.4733
C    -2.083331   -1.632001   -0.067761   -0.033560    0.015246    0.191064
C    -0.801007   -0.843604   -0.093860   -0.000429    0.012797   -0.002532
H    -2.932282   -0.929115   -0.043351   -0.071421   -0.110432   -0.454962
H    -2.030223   -2.115273    0.936253   -0.748660   -0.510543   -0.193338
H    -2.254937   -2.436998   -0.816834    0.792042    0.438704   -0.242478
C     0.471418   -1.621256    0.111772    0.033829   -0.041275   -0.186930
H     0.631728   -2.177563    1.061873   -0.784854    0.499000    0.101741
H     1.329337   -0.965426   -0.110544    0.068357    0.025739    0.468000
H     0.412984   -2.373250   -0.710127    0.744106   -0.442229    0.336957
O    -0.793745    0.349898   -0.269974    0.000147    0.016219   -0.002206
10
* Frequency(12)  859.4733
C    -2.080280   -1.633388   -0.085133   -0.033560    0.015246    0.191064
C    -0.800968   -0.844768   -0.093630   -0.000429    0.012797   -0.002532
H    -2.925788   -0.919074   -0.001985   -0.071421   -0.110432   -0.454962
H    -1.962154   -2.068854    0.953832   -0.748660   -0.510543   -0.193338
H    -2.326951   -2.476886   -0.794787    0.792042    0.438704   -0.242478
C     0.468343   -1.617504    0.128768    0.033829   -0.041275   -0.186930
H     0.703089   -2.222933    1.052623   -0.784854    0.499000    0.101741
H     1.323122   -0.967766   -0.153096    0.068357    0.025739    0.468000
H     0.345329   -2.333041   -0.740764    0.744106   -0.442229    0.336957
O    -0.793758    0.348424   -0.269773    0.000147    0.016219   -0.002206
10
* Frequency(12)  859.4733
C    -2.078165   -1.634348   -0.097173   -0.033560    0.015246    0.191064
C    -0.800941   -0.845574   -0.093470   -0.000429    0.012797   -0.002532
H    -2.921287   -0.912115    0.026686   -0.071421   -0.110432   -0.454962
H    -1.914975   -2.036681    0.966016   -0.748660   -0.510543   -0.193338
H    -2.376863   -2.504532   -0.779507    0.792042    0.438704   -0.242478
C     0.466211   -1.614903    0.140548    0.033829   -0.041275   -0.186930
H     0.752548   -2.254379    1.046211   -0.784854    0.499000    0.101741
H     1.318814   -0.969388   -0.182588    0.068357    0.025739    0.468000
H     0.298437   -2.305173   -0.761998    0.744106   -0.442229    0.336957
O    -0.793768    0.347402   -0.269634    0.000147    0.016219   -0.002206
10
* Frequency(12)  859.4733
C    -2.077215   -1.634779   -0.102577   -0.033560    0.015246    0.191064
C    -0.800929   -0.845936   -0.093399   -0.000429    0.012797   -0.002532
H    -2.919267   -0.908992    0.039554   -0.071421   -0.110432   -0.454962
H    -1.893800   -2.022240    0.971484   -0.748660   -0.510543   -0.193338
H    -2.399265   -2.516940   -0.772649    0.792042    0.438704   -0.242478
C     0.465254   -1.613735    0.145835    0.033829   -0.041275   -0.186930
H     0.774747   -2.268493    1.043334   -0.784854    0.499000    0.101741
H     1.316881   -0.970116   -0.195825    0.068357    0.025739    0.468000
H     0.277391   -2.292665   -0.771528    0.744106   -0.442229    0.336957
O    -0.793772    0.346943   -0.269572    0.000147    0.016219   -0.002206
10
* Frequency(12)  859.4733
C    -2.077535   -1.634634   -0.100759   -0.033560    0.015246    0.191064
C    -0.800933   -0.845814   -0.093423   -0.000429    0.012797   -0.002532
H    -2.919947   -0.910043    0.035225   -0.071421   -0.110432   -0.454962
H    -1.900923   -2.027098    0.969644   -0.748660   -0.510543   -0.193338
H    -2.391730   -2.512766   -0.774956    0.792042    0.438704   -0.242478
C     0.465576   -1.614128    0.144057    0.033829   -0.041275   -0.186930
H     0.767279   -2.263745    1.044302   -0.784854    0.499000    0.101741
H     1.317531   -0.969872   -0.191372    0.068357    0.025739    0.468000
H     0.284471   -2.296873   -0.768322    0.744106   -0.442229    0.336957
O    -0.793770    0.347097   -0.269593    0.000147    0.016219   -0.002206
10
* Frequency(12)  859.4733
C    -2.079088   -1.633929   -0.091917   -0.033560    0.015246    0.191064
C    -0.800953   -0.845222   -0.093540   -0.000429    0.012797   -0.002532
H    -2.923252   -0.915154    0.014169   -0.071421   -0.110432   -0.454962
H    -1.935573   -2.050727    0.960696   -0.748660   -0.510543   -0.193338
H    -2.355072   -2.492462   -0.786178    0.792042    0.438704   -0.242478
C     0.467142   -1.616038    0.135405    0.033829   -0.041275   -0.186930
H     0.730955   -2.240650    1.049010   -0.784854    0.499000    0.101741
H     1.320695   -0.968680   -0.169712    0.068357    0.025739    0.468000
H     0.318910   -2.317340   -0.752727    0.744106   -0.442229    0.336957
O    -0.793764    0.347848   -0.269695    0.000147    0.016219   -0.002206
10
* Frequency(12)  859.4733
C    -2.081707   -1.632739   -0.077007   -0.033560    0.015246    0.191064
C    -0.800986   -0.844223   -0.093738   -0.000429    0.012797   -0.002532
H    -2.928825   -0.923771   -0.021334   -0.071421   -0.110432   -0.454962
H    -1.993993   -2.090566    0.945610   -0.748660   -0.510543   -0.193338
H    -2.293266   -2.458228   -0.805100    0.792042    0.438704   -0.242478
C     0.469781   -1.619259    0.120818    0.033829   -0.041275   -0.186930
H     0.669710   -2.201711    1.056950   -0.784854    0.499000    0.101741
H     1.326029   -0.966672   -0.133192    0.068357    0.025739    0.468000
H     0.376975   -2.351849   -0.726433    0.744106   -0.442229    0.336957
O    -0.793752    0.349113   -0.269867    0.000147    0.016219   -0.002206
10
* Frequency(12)  859.4733
C    -2.085107   -1.631194   -0.057647   -0.033560    0.015246    0.191064
C    -0.801030   -0.842927   -0.093994   -0.000429    0.012797   -0.002532
H    -2.936062   -0.934961   -0.067435   -0.071421   -0.110432   -0.454962
H    -2.069855   -2.142300    0.926019   -0.748660   -0.510543   -0.193338
H    -2.213009   -2.413775   -0.829670    0.792042    0.438704   -0.242478
C     0.473209   -1.623441    0.101877    0.033829   -0.041275   -0.186930
H     0.590181   -2.151148    1.067259   -0.784854    0.499000    0.101741
H     1.332956   -0.964064   -0.085770    0.068357    0.025739    0.468000
H     0.452375   -2.396660   -0.692290    0.744106   -0.442229    0.336957
O    -0.793737    0.350757   -0.270090    0.000147    0.016219   -0.002206
10
* Frequency(12)  859.4733
C    -2.088921   -1.629462   -0.035933   -0.033560    0.015246    0.191064
C    -0.801078   -0.841472   -0.094282   -0.000429    0.012797   -0.002532
H    -2.944179   -0.947511   -0.119139   -0.071421   -0.110432   -0.454962
H    -2.154936   -2.200320    0.904047   -0.748660   -0.510543   -0.193338
H    -2.122997   -2.363918   -0.857226    0.792042    0.438704   -0.242478
C     0.477054   -1.628132    0.080633    0.033829   -0.041275   -0.186930
H     0.500986   -2.094439    1.078821   -0.784854    0.499000    0.101741
H     1.340724   -0.961139   -0.032584    0.068357    0.025739    0.468000
H     0.536939   -2.446917   -0.653996    0.744106   -0.442229    0.336957
O    -0.793721    0.352600   -0.270341    0.000147    0.016219   -0.002206
