10
* (null), Energy   -1000.0000000
C    -2.088921   -1.629462   -0.035933   -0.006894    0.016202    0.149137
C    -0.801078   -0.841472   -0.094282    0.000077    0.000338    0.000190
H    -2.944179   -0.947511   -0.119139    0.048155   -0.036372    0.028568
H    -2.154936   -2.200320    0.904047    0.065102    0.611196   -0.978467
H    -2.122997   -2.363918   -0.857226   -0.033110   -0.771267   -0.839802
C     0.477054   -1.628132    0.080633    0.004828   -0.019488   -0.104453
H     0.500986   -2.094439    1.078821    0.015700   -0.353230    0.730662
H     1.340724   -0.961139   -0.032584   -0.030563   -0.026999   -0.013493
H     0.536939   -2.446917   -0.653996   -0.041433    0.612690    0.536122
O    -0.793721    0.352600   -0.270341   -0.000010   -0.000056    0.000107
10
* Frequency(26) 3142.2084
C    -2.089705   -1.627621   -0.018985   -0.006894    0.016202    0.149137
C    -0.801070   -0.841434   -0.094260    0.000077    0.000338    0.000190
H    -2.938707   -0.951645   -0.115892    0.048155   -0.036372    0.028568
H    -2.147538   -2.130861    0.792849    0.065102    0.611196   -0.978467
H    -2.126760   -2.451569   -0.952665   -0.033110   -0.771267   -0.839802
C     0.477603   -1.630347    0.068763    0.004828   -0.019488   -0.104453
H     0.502770   -2.134582    1.161857    0.015700   -0.353230    0.730662
H     1.337251   -0.964207   -0.034117   -0.030563   -0.026999   -0.013493
H     0.532230   -2.377288   -0.593069   -0.041433    0.612690    0.536122
O    -0.793722    0.352594   -0.270329   -0.000010   -0.000056    0.000107
10
* Frequency(26) 3142.2084
C    -2.090403   -1.625979   -0.003873   -0.006894    0.016202    0.149137
C    -0.801062   -0.841399   -0.094241    0.000077    0.000338    0.000190
H    -2.933827   -0.955330   -0.112998    0.048155   -0.036372    0.028568
H    -2.140941   -2.068929    0.693701    0.065102    0.611196   -0.978467
H    -2.130115   -2.529721   -1.037762   -0.033110   -0.771267   -0.839802
C     0.478092   -1.632322    0.058179    0.004828   -0.019488   -0.104453
H     0.504361   -2.170375    1.235895    0.015700   -0.353230    0.730662
H     1.334154   -0.966943   -0.035485   -0.030563   -0.026999   -0.013493
H     0.528032   -2.315204   -0.538744   -0.041433    0.612690    0.536122
O    -0.793723    0.352588   -0.270318   -0.000010   -0.000056    0.000107
10
* Frequency(26) 3142.2084
C    -2.090941   -1.624715    0.007765   -0.006894    0.016202    0.149137
C    -0.801056   -0.841373   -0.094226    0.000077    0.000338    0.000190
H    -2.930069   -0.958168   -0.110768    0.048155   -0.036372    0.028568
H    -2.135861   -2.021235    0.617348    0.065102    0.611196   -0.978467
H    -2.132699   -2.589906   -1.103295   -0.033110   -0.771267   -0.839802
C     0.478469   -1.633842    0.050028    0.004828   -0.019488   -0.104453
H     0.505586   -2.197938    1.292911    0.015700   -0.353230    0.730662
H     1.331769   -0.969050   -0.036538   -0.030563   -0.026999   -0.013493
H     0.524799   -2.267393   -0.496908   -0.041433    0.612690    0.536122
O    -0.793723    0.352584   -0.270310   -0.000010   -0.000056    0.000107
10
* Frequency(26) 3142.2084
C    -2.091260   -1.623965    0.014667   -0.006894    0.016202    0.149137
C    -0.801052   -0.841357   -0.094217    0.000077    0.000338    0.000190
H    -2.927841   -0.959852   -0.109446    0.048155   -0.036372    0.028568
H    -2.132848   -1.992948    0.572063    0.065102    0.611196   -0.978467
H    -2.134231   -2.625602   -1.142163   -0.033110   -0.771267   -0.839802
C     0.478692   -1.634744    0.045193    0.004828   -0.019488   -0.104453
H     0.506313   -2.214287    1.326727    0.015700   -0.353230    0.730662
H     1.330354   -0.970299   -0.037162   -0.030563   -0.026999   -0.013493
H     0.522881   -2.239037   -0.472095   -0.041433    0.612690    0.536122
O    -0.793724    0.352581   -0.270305   -0.000010   -0.000056    0.000107
10
* Frequency(26) 3142.2084
C    -2.091326   -1.623811    0.016086   -0.006894    0.016202    0.149137
C    -0.801052   -0.841354   -0.094216    0.000077    0.000338    0.000190
H    -2.927382   -0.960198   -0.109174    0.048155   -0.036372    0.028568
H    -2.132228   -1.987132    0.562753    0.065102    0.611196   -0.978467
H    -2.134546   -2.632940   -1.150153   -0.033110   -0.771267   -0.839802
C     0.478738   -1.634930    0.044200    0.004828   -0.019488   -0.104453
H     0.506462   -2.217647    1.333679    0.015700   -0.353230    0.730662
H     1.330063   -0.970556   -0.037290   -0.030563   -0.026999   -0.013493
H     0.522487   -2.233208   -0.466994   -0.041433    0.612690    0.536122
O    -0.793724    0.352581   -0.270304   -0.000010   -0.000056    0.000107
10
* Frequency(26) 3142.2084
C    -2.091131   -1.624269    0.011868   -0.006894    0.016202    0.149137
C    -0.801054   -0.841364   -0.094221    0.000077    0.000338    0.000190
H    -2.928744   -0.959169   -0.109982    0.048155   -0.036372    0.028568
H    -2.134070   -2.004419    0.590428    0.065102    0.611196   -0.978467
H    -2.133610   -2.611125   -1.126400   -0.033110   -0.771267   -0.839802
C     0.478601   -1.634378    0.047154    0.004828   -0.019488   -0.104453
H     0.506018   -2.207657    1.313013    0.015700   -0.353230    0.730662
H     1.330928   -0.969793   -0.036909   -0.030563   -0.026999   -0.013493
H     0.523659   -2.250537   -0.482158   -0.041433    0.612690    0.536122
O    -0.793724    0.352582   -0.270307   -0.000010   -0.000056    0.000107
10
* Frequency(26) 3142.2084
C    -2.090697   -1.625290    0.002470   -0.006894    0.016202    0.149137
C    -0.801059   -0.841385   -0.094233    0.000077    0.000338    0.000190
H    -2.931779   -0.956877   -0.111783    0.048155   -0.036372    0.028568
H    -2.138172   -2.042935    0.652088    0.065102    0.611196   -0.978467
H    -2.131523   -2.562522   -1.073478   -0.033110   -0.771267   -0.839802
C     0.478297   -1.633150    0.053736    0.004828   -0.019488   -0.104453
H     0.505029   -2.185397    1.266969    0.015700   -0.353230    0.730662
H     1.332854   -0.968091   -0.036058   -0.030563   -0.026999   -0.013493
H     0.526270   -2.289147   -0.515943   -0.041433    0.612690    0.536122
O    -0.793723    0.352586   -0.270313   -0.000010   -0.000056    0.000107
10
* Frequency(26) 3142.2084
C    -2.090070   -1.626763   -0.011090   -0.006894    0.016202    0.149137
C    -0.801066   -0.841416   -0.094250    0.000077    0.000338    0.000190
H    -2.936157   -0.953570   -0.114380    0.048155   -0.036372    0.028568
H    -2.144091   -2.098506    0.741052    0.065102    0.611196   -0.978467
H    -2.128513   -2.492397   -0.997122   -0.033110   -0.771267   -0.839802
C     0.477858   -1.631378    0.063233    0.004828   -0.019488   -0.104453
H     0.503601   -2.153281    1.200536    0.015700   -0.353230    0.730662
H     1.335633   -0.965636   -0.034832   -0.030563   -0.026999   -0.013493
H     0.530037   -2.344854   -0.564688   -0.041433    0.612690    0.536122
O    -0.793722    0.352591   -0.270323   -0.000010   -0.000056    0.000107
10
* Frequency(26) 3142.2084
C    -2.089318   -1.628528   -0.027342   -0.006894    0.016202    0.149137
C    -0.801074   -0.841453   -0.094271    0.000077    0.000338    0.000190
H    -2.941405   -0.949606   -0.117493    0.048155   -0.036372    0.028568
H    -2.151186   -2.165110    0.847679    0.065102    0.611196   -0.978467
H    -2.124905   -2.408349   -0.905606   -0.033110   -0.771267   -0.839802
C     0.477332   -1.629255    0.074616    0.004828   -0.019488   -0.104453
H     0.501891   -2.114788    1.120913    0.015700   -0.353230    0.730662
H     1.338963   -0.962694   -0.033361   -0.030563   -0.026999   -0.013493
H     0.534552   -2.411621   -0.623111   -0.041433    0.612690    0.536122
O    -0.793721    0.352597   -0.270335   -0.000010   -0.000056    0.000107
10
* Frequency(26) 3142.2084
C    -2.088524   -1.630395   -0.044525   -0.006894    0.016202    0.149137
C    -0.801083   -0.841492   -0.094293    0.000077    0.000338    0.000190
H    -2.946953   -0.945416   -0.120785    0.048155   -0.036372    0.028568
H    -2.158686   -2.235530    0.960415    0.065102    0.611196   -0.978467
H    -2.121090   -2.319487   -0.808847   -0.033110   -0.771267   -0.839802
C     0.476776   -1.627009    0.086651    0.004828   -0.019488   -0.104453
H     0.500082   -2.074090    1.036729    0.015700   -0.353230    0.730662
H     1.342485   -0.959583   -0.031807   -0.030563   -0.026999   -0.013493
H     0.539326   -2.482213   -0.684881   -0.041433    0.612690    0.536122
O    -0.793720    0.352603   -0.270347   -0.000010   -0.000056    0.000107
10
* Frequency(26) 3142.2084
C    -2.087773   -1.632161   -0.060777   -0.006894    0.016202    0.149137
C    -0.801091   -0.841529   -0.094313    0.000077    0.000338    0.000190
H    -2.952201   -0.941452   -0.123898    0.048155   -0.036372    0.028568
H    -2.165781   -2.302134    1.067042    0.065102    0.611196   -0.978467
H    -2.117482   -2.235439   -0.717331   -0.033110   -0.771267   -0.839802
C     0.476250   -1.624886    0.098033    0.004828   -0.019488   -0.104453
H     0.498371   -2.035597    0.957106    0.015700   -0.353230    0.730662
H     1.345815   -0.956641   -0.030336   -0.030563   -0.026999   -0.013493
H     0.543841   -2.548980   -0.743304   -0.041433    0.612690    0.536122
O    -0.793719    0.352609   -0.270359   -0.000010   -0.000056    0.000107
10
* Frequency(26) 3142.2084
C    -2.087146   -1.633634   -0.074336   -0.006894    0.016202    0.149137
C    -0.801098   -0.841559   -0.094331    0.000077    0.000338    0.000190
H    -2.956579   -0.938145   -0.126495    0.048155   -0.036372    0.028568
H    -2.171700   -2.357705    1.156006    0.065102    0.611196   -0.978467
H    -2.114471   -2.165314   -0.640974   -0.033110   -0.771267   -0.839802
C     0.475811   -1.623114    0.107530    0.004828   -0.019488   -0.104453
H     0.496943   -2.003481    0.890673    0.015700   -0.353230    0.730662
H     1.348594   -0.954186   -0.029110   -0.030563   -0.026999   -0.013493
H     0.547608   -2.604686   -0.792049   -0.041433    0.612690    0.536122
O    -0.793718    0.352615   -0.270369   -0.000010   -0.000056    0.000107
10
* Frequency(26) 3142.2084
C    -2.086712   -1.634655   -0.083735   -0.006894    0.016202    0.149137
C    -0.801103   -0.841581   -0.094343    0.000077    0.000338    0.000190
H    -2.959614   -0.935853   -0.128296    0.048155   -0.036372    0.028568
H    -2.175803   -2.396221    1.217666    0.065102    0.611196   -0.978467
H    -2.112385   -2.116711   -0.588052   -0.033110   -0.771267   -0.839802
C     0.475506   -1.621886    0.114113    0.004828   -0.019488   -0.104453
H     0.495954   -1.981222    0.844629    0.015700   -0.353230    0.730662
H     1.350520   -0.952485   -0.028259   -0.030563   -0.026999   -0.013493
H     0.550219   -2.643296   -0.825834   -0.041433    0.612690    0.536122
O    -0.793717    0.352618   -0.270376   -0.000010   -0.000056    0.000107
10
* Frequency(26) 3142.2084
C    -2.086517   -1.635113   -0.087953   -0.006894    0.016202    0.149137
C    -0.801105   -0.841590   -0.094348    0.000077    0.000338    0.000190
H    -2.960976   -0.934824   -0.129104    0.048155   -0.036372    0.028568
H    -2.177644   -2.413508    1.245341    0.065102    0.611196   -0.978467
H    -2.111449   -2.094897   -0.564299   -0.033110   -0.771267   -0.839802
C     0.475370   -1.621335    0.117067    0.004828   -0.019488   -0.104453
H     0.495510   -1.971231    0.823963    0.015700   -0.353230    0.730662
H     1.351385   -0.951721   -0.027878   -0.030563   -0.026999   -0.013493
H     0.551391   -2.660626   -0.840998   -0.041433    0.612690    0.536122
O    -0.793717    0.352620   -0.270379   -0.000010   -0.000056    0.000107
10
* Frequency(26) 3142.2084
C    -2.086582   -1.634959   -0.086534   -0.006894    0.016202    0.149137
C    -0.801104   -0.841587   -0.094346    0.000077    0.000338    0.000190
H    -2.960518   -0.935170   -0.128832    0.048155   -0.036372    0.028568
H    -2.177024   -2.407693    1.236031    0.065102    0.611196   -0.978467
H    -2.111764   -2.102235   -0.572290   -0.033110   -0.771267   -0.839802
C     0.475416   -1.621520    0.116073    0.004828   -0.019488   -0.104453
H     0.495659   -1.974592    0.830915    0.015700   -0.353230    0.730662
H     1.351094   -0.951978   -0.028006   -0.030563   -0.026999   -0.013493
H     0.550997   -2.654796   -0.835897   -0.041433    0.612690    0.536122
O    -0.793717    0.352619   -0.270378   -0.000010   -0.000056    0.000107
10
* Frequency(26) 3142.2084
C    -2.086901   -1.634209   -0.079632   -0.006894    0.016202    0.149137
C    -0.801101   -0.841571   -0.094338    0.000077    0.000338    0.000190
H    -2.958289   -0.936854   -0.127510    0.048155   -0.036372    0.028568
H    -2.174011   -2.379406    1.190746    0.065102    0.611196   -0.978467
H    -2.113296   -2.137931   -0.611157   -0.033110   -0.771267   -0.839802
C     0.475639   -1.622422    0.111239    0.004828   -0.019488   -0.104453
H     0.496386   -1.990940    0.864731    0.015700   -0.353230    0.730662
H     1.349679   -0.953228   -0.028631   -0.030563   -0.026999   -0.013493
H     0.549079   -2.626440   -0.811084   -0.041433    0.612690    0.536122
O    -0.793718    0.352617   -0.270373   -0.000010   -0.000056    0.000107
10
* Frequency(26) 3142.2084
C    -2.087439   -1.632945   -0.067994   -0.006894    0.016202    0.149137
C    -0.801095   -0.841545   -0.094323    0.000077    0.000338    0.000190
H    -2.954531   -0.939692   -0.125280    0.048155   -0.036372    0.028568
H    -2.168931   -2.331712    1.114392    0.065102    0.611196   -0.978467
H    -2.115880   -2.198115   -0.676690   -0.033110   -0.771267   -0.839802
C     0.476016   -1.623943    0.103088    0.004828   -0.019488   -0.104453
H     0.497611   -2.018504    0.921748    0.015700   -0.353230    0.730662
H     1.347294   -0.955334   -0.029683   -0.030563   -0.026999   -0.013493
H     0.545846   -2.578629   -0.769249   -0.041433    0.612690    0.536122
O    -0.793719    0.352612   -0.270364   -0.000010   -0.000056    0.000107
10
* Frequency(26) 3142.2084
C    -2.088138   -1.631303   -0.052882   -0.006894    0.016202    0.149137
C    -0.801087   -0.841511   -0.094303    0.000077    0.000338    0.000190
H    -2.949652   -0.943378   -0.122386    0.048155   -0.036372    0.028568
H    -2.162335   -2.269780    1.015245    0.065102    0.611196   -0.978467
H    -2.119235   -2.276268   -0.761787   -0.033110   -0.771267   -0.839802
C     0.476505   -1.625917    0.092504    0.004828   -0.019488   -0.104453
H     0.499202   -2.054296    0.995785    0.015700   -0.353230    0.730662
H     1.344198   -0.958070   -0.031051   -0.030563   -0.026999   -0.013493
H     0.541647   -2.516546   -0.714924   -0.041433    0.612690    0.536122
O    -0.793719    0.352606   -0.270353   -0.000010   -0.000056    0.000107
10
* Frequency(26) 3142.2084
C    -2.088921   -1.629462   -0.035933   -0.006894    0.016202    0.149137
C    -0.801078   -0.841472   -0.094282    0.000077    0.000338    0.000190
H    -2.944179   -0.947511   -0.119139    0.048155   -0.036372    0.028568
H    -2.154936   -2.200320    0.904047    0.065102    0.611196   -0.978467
H    -2.122997   -2.363918   -0.857226   -0.033110   -0.771267   -0.839802
C     0.477054   -1.628132    0.080633    0.004828   -0.019488   -0.104453
H     0.500986   -2.094439    1.078821    0.015700   -0.353230    0.730662
H     1.340724   -0.961139   -0.032584   -0.030563   -0.026999   -0.013493
H     0.536939   -2.446917   -0.653996   -0.041433    0.612690    0.536122
O    -0.793721    0.352600   -0.270341   -0.000010   -0.000056    0.000107
