10
* (null), Energy   -1000.0000000
C    -2.088921   -1.629462   -0.035933    0.022201    0.088710   -0.012832
C    -0.801078   -0.841472   -0.094282   -0.009308   -1.480669    0.218492
H    -2.944179   -0.947511   -0.119139   -0.287204   -0.374282    0.033666
H    -2.154936   -2.200320    0.904047    0.146149    0.243479    0.105191
H    -2.122997   -2.363918   -0.857226    0.119259    0.204568   -0.139096
C     0.477054   -1.628132    0.080633   -0.020854    0.088630   -0.013391
H     0.500986   -2.094439    1.078821   -0.119250    0.238454    0.074527
H     1.340724   -0.961139   -0.032584    0.282585   -0.371801    0.075411
H     0.536939   -2.446917   -0.653996   -0.141133    0.205044   -0.172053
O    -0.793721    0.352600   -0.270341    0.005951    0.969290   -0.142935
10
* Frequency(23) 1872.8463
C    -2.086398   -1.619380   -0.037391    0.022201    0.088710   -0.012832
C    -0.802136   -1.009743   -0.069451   -0.009308   -1.480669    0.218492
H    -2.976818   -0.990046   -0.115313   -0.287204   -0.374282    0.033666
H    -2.138327   -2.172650    0.916001    0.146149    0.243479    0.105191
H    -2.109444   -2.340670   -0.873034    0.119259    0.204568   -0.139096
C     0.474684   -1.618060    0.079112   -0.020854    0.088630   -0.013391
H     0.487434   -2.067340    1.087291   -0.119250    0.238454    0.074527
H     1.372838   -1.003392   -0.024014    0.282585   -0.371801    0.075411
H     0.520900   -2.423614   -0.673549   -0.141133    0.205044   -0.172053
O    -0.793044    0.462755   -0.286585    0.005951    0.969290   -0.142935
10
* Frequency(23) 1872.8463
C    -2.084149   -1.610391   -0.038692    0.022201    0.088710   -0.012832
C    -0.803079   -1.159778   -0.047312   -0.009308   -1.480669    0.218492
H    -3.005921   -1.027972   -0.111902   -0.287204   -0.374282    0.033666
H    -2.123518   -2.147978    0.926660    0.146149    0.243479    0.105191
H    -2.097360   -2.319941   -0.887128    0.119259    0.204568   -0.139096
C     0.472571   -1.609079    0.077755   -0.020854    0.088630   -0.013391
H     0.475350   -2.043178    1.094843   -0.119250    0.238454    0.074527
H     1.401473   -1.041066   -0.016373    0.282585   -0.371801    0.075411
H     0.506599   -2.402837   -0.690983   -0.141133    0.205044   -0.172053
O    -0.792441    0.560973   -0.301068    0.005951    0.969290   -0.142935
10
* Frequency(23) 1872.8463
C    -2.082416   -1.603469   -0.039693    0.022201    0.088710   -0.012832
C    -0.803806   -1.275321   -0.030262   -0.009308   -1.480669    0.218492
H    -3.028332   -1.057179   -0.109274   -0.287204   -0.374282    0.033666
H    -2.112113   -2.128979    0.934869    0.146149    0.243479    0.105191
H    -2.088054   -2.303978   -0.897982    0.119259    0.204568   -0.139096
C     0.470943   -1.602163    0.076710   -0.020854    0.088630   -0.013391
H     0.466045   -2.024570    1.100658   -0.119250    0.238454    0.074527
H     1.423524   -1.070079   -0.010488    0.282585   -0.371801    0.075411
H     0.495586   -2.386837   -0.704409   -0.141133    0.205044   -0.172053
O    -0.791977    0.636610   -0.312222    0.005951    0.969290   -0.142935
10
* Frequency(23) 1872.8463
C    -2.081389   -1.599363   -0.040287    0.022201    0.088710   -0.012832
C    -0.804237   -1.343849   -0.020150   -0.009308   -1.480669    0.218492
H    -3.041625   -1.074501   -0.107716   -0.287204   -0.374282    0.033666
H    -2.105349   -2.117710    0.939737    0.146149    0.243479    0.105191
H    -2.082534   -2.294510   -0.904420    0.119259    0.204568   -0.139096
C     0.469978   -1.598061    0.076090   -0.020854    0.088630   -0.013391
H     0.460526   -2.013534    1.104108   -0.119250    0.238454    0.074527
H     1.436602   -1.087287   -0.006998    0.282585   -0.371801    0.075411
H     0.489054   -2.377347   -0.712372   -0.141133    0.205044   -0.172053
O    -0.791701    0.681470   -0.318837    0.005951    0.969290   -0.142935
10
* Frequency(23) 1872.8463
C    -2.081177   -1.598519   -0.040409    0.022201    0.088710   -0.012832
C    -0.804325   -1.357936   -0.018071   -0.009308   -1.480669    0.218492
H    -3.044357   -1.078062   -0.107396   -0.287204   -0.374282    0.033666
H    -2.103959   -2.115394    0.940738    0.146149    0.243479    0.105191
H    -2.081399   -2.292564   -0.905743    0.119259    0.204568   -0.139096
C     0.469780   -1.597218    0.075963   -0.020854    0.088630   -0.013391
H     0.459391   -2.011265    1.104817   -0.119250    0.238454    0.074527
H     1.439291   -1.090824   -0.006280    0.282585   -0.371801    0.075411
H     0.487711   -2.375396   -0.714009   -0.141133    0.205044   -0.172053
O    -0.791645    0.690693   -0.320197    0.005951    0.969290   -0.142935
10
* Frequency(23) 1872.8463
C    -2.081805   -1.601028   -0.040046    0.022201    0.088710   -0.012832
C    -0.804062   -1.316057   -0.024251   -0.009308   -1.480669    0.218492
H    -3.036234   -1.067476   -0.108348   -0.287204   -0.374282    0.033666
H    -2.108092   -2.122280    0.937763    0.146149    0.243479    0.105191
H    -2.084773   -2.298350   -0.901809    0.119259    0.204568   -0.139096
C     0.470370   -1.599724    0.076341   -0.020854    0.088630   -0.013391
H     0.462764   -2.018010    1.102709   -0.119250    0.238454    0.074527
H     1.431299   -1.080309   -0.008413    0.282585   -0.371801    0.075411
H     0.491703   -2.381196   -0.709143   -0.141133    0.205044   -0.172053
O    -0.791813    0.663277   -0.316155    0.005951    0.969290   -0.142935
10
* Frequency(23) 1872.8463
C    -2.083204   -1.606619   -0.039237    0.022201    0.088710   -0.012832
C    -0.803475   -1.222750   -0.038020   -0.009308   -1.480669    0.218492
H    -3.018135   -1.043890   -0.110470   -0.287204   -0.374282    0.033666
H    -2.117302   -2.137624    0.931134    0.146149    0.243479    0.105191
H    -2.092288   -2.311241   -0.893044    0.119259    0.204568   -0.139096
C     0.471684   -1.605310    0.077185   -0.020854    0.088630   -0.013391
H     0.470279   -2.033036    1.098012   -0.119250    0.238454    0.074527
H     1.413491   -1.056879   -0.013165    0.282585   -0.371801    0.075411
H     0.500597   -2.394117   -0.698300   -0.141133    0.205044   -0.172053
O    -0.792188    0.602195   -0.307147    0.005951    0.969290   -0.142935
10
* Frequency(23) 1872.8463
C    -2.085223   -1.614684   -0.038071    0.022201    0.088710   -0.012832
C    -0.802629   -1.088124   -0.057885   -0.009308   -1.480669    0.218492
H    -2.992022   -1.009860   -0.113531   -0.287204   -0.374282    0.033666
H    -2.130590   -2.159761    0.921570    0.146149    0.243479    0.105191
H    -2.103131   -2.329841   -0.880397    0.119259    0.204568   -0.139096
C     0.473580   -1.613368    0.078403   -0.020854    0.088630   -0.013391
H     0.481121   -2.054717    1.091236   -0.119250    0.238454    0.074527
H     1.387798   -1.023074   -0.020022    0.282585   -0.371801    0.075411
H     0.513429   -2.412760   -0.682657   -0.141133    0.205044   -0.172053
O    -0.792729    0.514066   -0.294151    0.005951    0.969290   -0.142935
10
* Frequency(23) 1872.8463
C    -2.087642   -1.624351   -0.036672    0.022201    0.088710   -0.012832
C    -0.801615   -0.926771   -0.081695   -0.009308   -1.480669    0.218492
H    -2.960724   -0.969073   -0.117200   -0.287204   -0.374282    0.033666
H    -2.146517   -2.186294    0.910107    0.146149    0.243479    0.105191
H    -2.116127   -2.352133   -0.865239    0.119259    0.204568   -0.139096
C     0.475852   -1.623026    0.079862   -0.020854    0.088630   -0.013391
H     0.494116   -2.080702    1.083115   -0.119250    0.238454    0.074527
H     1.357003   -0.982557   -0.028240    0.282585   -0.371801    0.075411
H     0.528808   -2.435104   -0.663908   -0.141133    0.205044   -0.172053
O    -0.793378    0.408439   -0.278575    0.005951    0.969290   -0.142935
10
* Frequency(23) 1872.8463
C    -2.090200   -1.634572   -0.035194    0.022201    0.088710   -0.012832
C    -0.800542   -0.756174   -0.106869   -0.009308   -1.480669    0.218492
H    -2.927634   -0.925949   -0.121078   -0.287204   -0.374282    0.033666
H    -2.163355   -2.214347    0.897987    0.146149    0.243479    0.105191
H    -2.129868   -2.375703   -0.849213    0.119259    0.204568   -0.139096
C     0.478255   -1.633238    0.081405   -0.020854    0.088630   -0.013391
H     0.507856   -2.108176    1.074528   -0.119250    0.238454    0.074527
H     1.324445   -0.939720   -0.036928    0.282585   -0.371801    0.075411
H     0.545069   -2.458729   -0.644084   -0.141133    0.205044   -0.172053
O    -0.794063    0.296761   -0.262107    0.005951    0.969290   -0.142935
10
* Frequency(23) 1872.8463
C    -2.092620   -1.644239   -0.033796    0.022201    0.088710   -0.012832
C    -0.799528   -0.594820   -0.130678   -0.009308   -1.480669    0.218492
H    -2.896336   -0.885163   -0.124747   -0.287204   -0.374282    0.033666
H    -2.179282   -2.240879    0.886524    0.146149    0.243479    0.105191
H    -2.142864   -2.397996   -0.834055    0.119259    0.204568   -0.139096
C     0.480528   -1.642896    0.082864   -0.020854    0.088630   -0.013391
H     0.520851   -2.134161    1.066406   -0.119250    0.238454    0.074527
H     1.293651   -0.899203   -0.045146    0.282585   -0.371801    0.075411
H     0.560449   -2.481073   -0.625335   -0.141133    0.205044   -0.172053
O    -0.794712    0.191134   -0.246531    0.005951    0.969290   -0.142935
10
* Frequency(23) 1872.8463
C    -2.094638   -1.652305   -0.032629    0.022201    0.088710   -0.012832
C    -0.798682   -0.460195   -0.150544   -0.009308   -1.480669    0.218492
H    -2.870223   -0.851132   -0.127808   -0.287204   -0.374282    0.033666
H    -2.192570   -2.263017    0.876960    0.146149    0.243479    0.105191
H    -2.153707   -2.416595   -0.821408    0.119259    0.204568   -0.139096
C     0.482424   -1.650955    0.084081   -0.020854    0.088630   -0.013391
H     0.531693   -2.155842    1.059630   -0.119250    0.238454    0.074527
H     1.267957   -0.865399   -0.052003    0.282585   -0.371801    0.075411
H     0.573281   -2.499716   -0.609692   -0.141133    0.205044   -0.172053
O    -0.795253    0.103005   -0.233535    0.005951    0.969290   -0.142935
10
* Frequency(23) 1872.8463
C    -2.096037   -1.657895   -0.031820    0.022201    0.088710   -0.012832
C    -0.798095   -0.366887   -0.164313   -0.009308   -1.480669    0.218492
H    -2.852124   -0.827546   -0.129930   -0.287204   -0.374282    0.033666
H    -2.201780   -2.278360    0.870331    0.146149    0.243479    0.105191
H    -2.161222   -2.429487   -0.812643    0.119259    0.204568   -0.139096
C     0.483738   -1.656540    0.084925   -0.020854    0.088630   -0.013391
H     0.539208   -2.170869    1.054934   -0.119250    0.238454    0.074527
H     1.250150   -0.841969   -0.056755    0.282585   -0.371801    0.075411
H     0.582175   -2.512638   -0.598849   -0.141133    0.205044   -0.172053
O    -0.795628    0.041923   -0.224528    0.005951    0.969290   -0.142935
10
* Frequency(23) 1872.8463
C    -2.096665   -1.660404   -0.031457    0.022201    0.088710   -0.012832
C    -0.797832   -0.325008   -0.170493   -0.009308   -1.480669    0.218492
H    -2.844001   -0.816960   -0.130882   -0.287204   -0.374282    0.033666
H    -2.205913   -2.285247    0.867356    0.146149    0.243479    0.105191
H    -2.164595   -2.435273   -0.808709    0.119259    0.204568   -0.139096
C     0.484328   -1.659046    0.085304   -0.020854    0.088630   -0.013391
H     0.542581   -2.177613    1.052826   -0.119250    0.238454    0.074527
H     1.242157   -0.831453   -0.058888    0.282585   -0.371801    0.075411
H     0.586167   -2.518437   -0.593983   -0.141133    0.205044   -0.172053
O    -0.795796    0.014507   -0.220485    0.005951    0.969290   -0.142935
10
* Frequency(23) 1872.8463
C    -2.096454   -1.659560   -0.031580    0.022201    0.088710   -0.012832
C    -0.797920   -0.339096   -0.168414   -0.009308   -1.480669    0.218492
H    -2.846734   -0.820521   -0.130562   -0.287204   -0.374282    0.033666
H    -2.204523   -2.282930    0.868357    0.146149    0.243479    0.105191
H    -2.163461   -2.433326   -0.810032    0.119259    0.204568   -0.139096
C     0.484129   -1.658203    0.085177   -0.020854    0.088630   -0.013391
H     0.541447   -2.175344    1.053535   -0.119250    0.238454    0.074527
H     1.244846   -0.834990   -0.058170    0.282585   -0.371801    0.075411
H     0.584824   -2.516486   -0.595620   -0.141133    0.205044   -0.172053
O    -0.795740    0.023730   -0.221845    0.005951    0.969290   -0.142935
10
* Frequency(23) 1872.8463
C    -2.095426   -1.655455   -0.032173    0.022201    0.088710   -0.012832
C    -0.798351   -0.407624   -0.158302   -0.009308   -1.480669    0.218492
H    -2.860026   -0.837843   -0.129004   -0.287204   -0.374282    0.033666
H    -2.197759   -2.271662    0.873225    0.146149    0.243479    0.105191
H    -2.157941   -2.423858   -0.816470    0.119259    0.204568   -0.139096
C     0.483164   -1.654101    0.084557   -0.020854    0.088630   -0.013391
H     0.535927   -2.164308    1.056984   -0.119250    0.238454    0.074527
H     1.257924   -0.852198   -0.054680    0.282585   -0.371801    0.075411
H     0.578292   -2.506996   -0.603583   -0.141133    0.205044   -0.172053
O    -0.795464    0.068590   -0.228460    0.005951    0.969290   -0.142935
10
* Frequency(23) 1872.8463
C    -2.093694   -1.648532   -0.033175    0.022201    0.088710   -0.012832
C    -0.799077   -0.523166   -0.141252   -0.009308   -1.480669    0.218492
H    -2.882438   -0.867050   -0.126376   -0.287204   -0.374282    0.033666
H    -2.186354   -2.252662    0.881434    0.146149    0.243479    0.105191
H    -2.148635   -2.407895   -0.827324    0.119259    0.204568   -0.139096
C     0.481537   -1.647185    0.083512   -0.020854    0.088630   -0.013391
H     0.526622   -2.145701    1.062800   -0.119250    0.238454    0.074527
H     1.279976   -0.881211   -0.048795    0.282585   -0.371801    0.075411
H     0.567279   -2.490996   -0.617009   -0.141133    0.205044   -0.172053
O    -0.795000    0.144228   -0.239614    0.005951    0.969290   -0.142935
10
* Frequency(23) 1872.8463
C    -2.091444   -1.639543   -0.034475    0.022201    0.088710   -0.012832
C    -0.800021   -0.673202   -0.119112   -0.009308   -1.480669    0.218492
H    -2.911540   -0.904976   -0.122965   -0.287204   -0.374282    0.033666
H    -2.171545   -2.227990    0.892093    0.146149    0.243479    0.105191
H    -2.136551   -2.387166   -0.841419    0.119259    0.204568   -0.139096
C     0.479424   -1.638204    0.082155   -0.020854    0.088630   -0.013391
H     0.514538   -2.121538    1.070352   -0.119250    0.238454    0.074527
H     1.308610   -0.918885   -0.041154    0.282585   -0.371801    0.075411
H     0.552978   -2.470219   -0.634443   -0.141133    0.205044   -0.172053
O    -0.794397    0.242445   -0.254097    0.005951    0.969290   -0.142935
10
* Frequency(23) 1872.8463
C    -2.088921   -1.629462   -0.035933    0.022201    0.088710   -0.012832
C    -0.801078   -0.841472   -0.094282   -0.009308   -1.480669    0.218492
H    -2.944179   -0.947511   -0.119139   -0.287204   -0.374282    0.033666
H    -2.154936   -2.200320    0.904047    0.146149    0.243479    0.105191
H    -2.122997   -2.363918   -0.857226    0.119259    0.204568   -0.139096
C     0.477054   -1.628132    0.080633   -0.020854    0.088630   -0.013391
H     0.500986   -2.094439    1.078821   -0.119250    0.238454    0.074527
H     1.340724   -0.961139   -0.032584    0.282585   -0.371801    0.075411
H     0.536939   -2.446917   -0.653996   -0.141133    0.205044   -0.172053
O    -0.793721    0.352600   -0.270341    0.005951    0.969290   -0.142935
