10
* (null), Energy   -1000.0000000
C    -2.088921   -1.629462   -0.035933    0.012757   -0.034325   -0.259742
C    -0.801078   -0.841472   -0.094282   -0.019169    0.070950    0.477512
H    -2.944179   -0.947511   -0.119139    0.019983    0.078135    0.576483
H    -2.154936   -2.200320    0.904047    0.600028    0.570231    0.168641
H    -2.122997   -2.363918   -0.857226   -0.665008   -0.512035    0.222874
C     0.477054   -1.628132    0.080633    0.011420   -0.044234   -0.258696
H     0.500986   -2.094439    1.078821   -0.653305    0.563374    0.063285
H     1.340724   -0.961139   -0.032584    0.010116    0.097570    0.574812
H     0.536939   -2.446917   -0.653996    0.600621   -0.505946    0.329776
O    -0.793721    0.352600   -0.270341    0.001757   -0.012643   -0.091243
10
* Frequency(15) 1104.5661
C    -2.087472   -1.633363   -0.065452    0.012757   -0.034325   -0.259742
C    -0.803257   -0.833409   -0.040015   -0.019169    0.070950    0.477512
H    -2.941908   -0.938631   -0.053625    0.019983    0.078135    0.576483
H    -2.086746   -2.135516    0.923212    0.600028    0.570231    0.168641
H    -2.198572   -2.422108   -0.831898   -0.665008   -0.512035    0.222874
C     0.478352   -1.633159    0.051234    0.011420   -0.044234   -0.258696
H     0.426741   -2.030415    1.086013   -0.653305    0.563374    0.063285
H     1.341874   -0.950050    0.032740    0.010116    0.097570    0.574812
H     0.605196   -2.504415   -0.616519    0.600621   -0.505946    0.329776
O    -0.793521    0.351163   -0.280710    0.001757   -0.012643   -0.091243
10
* Frequency(15) 1104.5661
C    -2.086179   -1.636841   -0.091771    0.012757   -0.034325   -0.259742
C    -0.805199   -0.826220    0.008371   -0.019169    0.070950    0.477512
H    -2.939883   -0.930714    0.004790    0.019983    0.078135    0.576483
H    -2.025945   -2.077735    0.940300    0.600028    0.570231    0.168641
H    -2.265957   -2.473993   -0.809314   -0.665008   -0.512035    0.222874
C     0.479509   -1.637641    0.025020    0.011420   -0.044234   -0.258696
H     0.360542   -1.973328    1.092426   -0.653305    0.563374    0.063285
H     1.342899   -0.940164    0.090986    0.010116    0.097570    0.574812
H     0.666057   -2.555682   -0.583103    0.600621   -0.505946    0.329776
O    -0.793343    0.349882   -0.289956    0.001757   -0.012643   -0.091243
10
* Frequency(15) 1104.5661
C    -2.085183   -1.639519   -0.112040    0.012757   -0.034325   -0.259742
C    -0.806695   -0.820683    0.045633   -0.019169    0.070950    0.477512
H    -2.938324   -0.924617    0.049775    0.019983    0.078135    0.576483
H    -1.979123   -2.033238    0.953460    0.600028    0.570231    0.168641
H    -2.317850   -2.513949   -0.791922   -0.665008   -0.512035    0.222874
C     0.480400   -1.641093    0.004833    0.011420   -0.044234   -0.258696
H     0.309562   -1.929366    1.097364   -0.653305    0.563374    0.063285
H     1.343688   -0.932550    0.135840    0.010116    0.097570    0.574812
H     0.712926   -2.595163   -0.557369    0.600621   -0.505946    0.329776
O    -0.793206    0.348896   -0.297076    0.001757   -0.012643   -0.091243
10
* Frequency(15) 1104.5661
C    -2.084593   -1.641108   -0.124061    0.012757   -0.034325   -0.259742
C    -0.807582   -0.817399    0.067733   -0.019169    0.070950    0.477512
H    -2.937399   -0.921001    0.076456    0.019983    0.078135    0.576483
H    -1.951352   -2.006847    0.961265    0.600028    0.570231    0.168641
H    -2.348628   -2.537647   -0.781607   -0.665008   -0.512035    0.222874
C     0.480929   -1.643140   -0.007140    0.011420   -0.044234   -0.258696
H     0.279326   -1.903292    1.100293   -0.653305    0.563374    0.063285
H     1.344156   -0.928034    0.162444    0.010116    0.097570    0.574812
H     0.740724   -2.618579   -0.542107    0.600621   -0.505946    0.329776
O    -0.793124    0.348310   -0.301299    0.001757   -0.012643   -0.091243
10
* Frequency(15) 1104.5661
C    -2.084472   -1.641434   -0.126532    0.012757   -0.034325   -0.259742
C    -0.807765   -0.816724    0.072277   -0.019169    0.070950    0.477512
H    -2.937209   -0.920257    0.081941    0.019983    0.078135    0.576483
H    -1.945644   -2.001421    0.962870    0.600028    0.570231    0.168641
H    -2.354955   -2.542518   -0.779487   -0.665008   -0.512035    0.222874
C     0.481037   -1.643561   -0.009601    0.011420   -0.044234   -0.258696
H     0.273110   -1.897932    1.100895   -0.653305    0.563374    0.063285
H     1.344253   -0.927106    0.167913    0.010116    0.097570    0.574812
H     0.746438   -2.623393   -0.538969    0.600621   -0.505946    0.329776
O    -0.793108    0.348190   -0.302167    0.001757   -0.012643   -0.091243
10
* Frequency(15) 1104.5661
C    -2.084832   -1.640464   -0.119186    0.012757   -0.034325   -0.259742
C    -0.807223   -0.818731    0.058771   -0.019169    0.070950    0.477512
H    -2.937774   -0.922467    0.065636    0.019983    0.078135    0.576483
H    -1.962615   -2.017549    0.958100    0.600028    0.570231    0.168641
H    -2.336146   -2.528036   -0.785790   -0.665008   -0.512035    0.222874
C     0.480714   -1.642310   -0.002284    0.011420   -0.044234   -0.258696
H     0.291588   -1.913866    1.099105   -0.653305    0.563374    0.063285
H     1.343966   -0.929866    0.151655    0.010116    0.097570    0.574812
H     0.729450   -2.609083   -0.548296    0.600621   -0.505946    0.329776
O    -0.793157    0.348548   -0.299586    0.001757   -0.012643   -0.091243
10
* Frequency(15) 1104.5661
C    -2.085636   -1.638301   -0.102818    0.012757   -0.034325   -0.259742
C    -0.806015   -0.823202    0.028679   -0.019169    0.070950    0.477512
H    -2.939033   -0.927391    0.029307    0.019983    0.078135    0.576483
H    -2.000427   -2.053484    0.947473    0.600028    0.570231    0.168641
H    -2.294239   -2.495769   -0.799835   -0.665008   -0.512035    0.222874
C     0.479995   -1.639522    0.014018    0.011420   -0.044234   -0.258696
H     0.332758   -1.949368    1.095117   -0.653305    0.563374    0.063285
H     1.343329   -0.936014    0.115432    0.010116    0.097570    0.574812
H     0.691601   -2.577199   -0.569078    0.600621   -0.505946    0.329776
O    -0.793268    0.349344   -0.293836    0.001757   -0.012643   -0.091243
10
* Frequency(15) 1104.5661
C    -2.086796   -1.635180   -0.079201    0.012757   -0.034325   -0.259742
C    -0.804272   -0.829653   -0.014737   -0.019169    0.070950    0.477512
H    -2.940850   -0.934495   -0.023108    0.019983    0.078135    0.576483
H    -2.054982   -2.105330    0.932139    0.600028    0.570231    0.168641
H    -2.233776   -2.449214   -0.820099   -0.665008   -0.512035    0.222874
C     0.478956   -1.635501    0.037539    0.011420   -0.044234   -0.258696
H     0.392158   -2.000591    1.089363   -0.653305    0.563374    0.063285
H     1.342409   -0.944885    0.063169    0.010116    0.097570    0.574812
H     0.636991   -2.531198   -0.599062    0.600621   -0.505946    0.329776
O    -0.793428    0.350494   -0.285541    0.001757   -0.012643   -0.091243
10
* Frequency(15) 1104.5661
C    -2.088186   -1.631439   -0.050896    0.012757   -0.034325   -0.259742
C    -0.802183   -0.837385   -0.066773   -0.019169    0.070950    0.477512
H    -2.943028   -0.943010   -0.085929    0.019983    0.078135    0.576483
H    -2.120370   -2.167470    0.913762    0.600028    0.570231    0.168641
H    -2.161307   -2.393416   -0.844387   -0.665008   -0.512035    0.222874
C     0.477712   -1.630680    0.065730    0.011420   -0.044234   -0.258696
H     0.463350   -2.061984    1.082467   -0.653305    0.563374    0.063285
H     1.341307   -0.955518    0.000530    0.010116    0.097570    0.574812
H     0.571539   -2.476063   -0.634998    0.600621   -0.505946    0.329776
O    -0.793619    0.351872   -0.275597    0.001757   -0.012643   -0.091243
10
* Frequency(15) 1104.5661
C    -2.089656   -1.627484   -0.020970    0.012757   -0.034325   -0.259742
C    -0.799974   -0.845560   -0.121790   -0.019169    0.070950    0.477512
H    -2.945330   -0.952012   -0.152349    0.019983    0.078135    0.576483
H    -2.189503   -2.233170    0.894332    0.600028    0.570231    0.168641
H    -2.084688   -2.334421   -0.870065   -0.665008   -0.512035    0.222874
C     0.476396   -1.625584    0.095536    0.011420   -0.044234   -0.258696
H     0.538622   -2.126894    1.075176   -0.653305    0.563374    0.063285
H     1.340141   -0.966759   -0.065698    0.010116    0.097570    0.574812
H     0.502338   -2.417770   -0.672994    0.600621   -0.505946    0.329776
O    -0.793822    0.353328   -0.265085    0.001757   -0.012643   -0.091243
10
* Frequency(15) 1104.5661
C    -2.091046   -1.623744    0.007335    0.012757   -0.034325   -0.259742
C    -0.797885   -0.853291   -0.173827   -0.019169    0.070950    0.477512
H    -2.947508   -0.960527   -0.215170    0.019983    0.078135    0.576483
H    -2.254890   -2.295310    0.875954    0.600028    0.570231    0.168641
H    -2.012219   -2.278623   -0.894353   -0.665008   -0.512035    0.222874
C     0.475151   -1.620764    0.123727    0.011420   -0.044234   -0.258696
H     0.609815   -2.188287    1.068279   -0.653305    0.563374    0.063285
H     1.339039   -0.977392   -0.128337    0.010116    0.097570    0.574812
H     0.436886   -2.362635   -0.708931    0.600621   -0.505946    0.329776
O    -0.794013    0.354706   -0.255142    0.001757   -0.012643   -0.091243
10
* Frequency(15) 1104.5661
C    -2.092206   -1.620623    0.030951    0.012757   -0.034325   -0.259742
C    -0.796142   -0.859742   -0.217243   -0.019169    0.070950    0.477512
H    -2.949325   -0.967631   -0.267585    0.019983    0.078135    0.576483
H    -2.309445   -2.347157    0.860621    0.600028    0.570231    0.168641
H    -1.951756   -2.232068   -0.914617   -0.665008   -0.512035    0.222874
C     0.474113   -1.616742    0.147248    0.011420   -0.044234   -0.258696
H     0.669214   -2.239510    1.062525   -0.653305    0.563374    0.063285
H     1.338119   -0.986263   -0.180600    0.010116    0.097570    0.574812
H     0.382277   -2.316634   -0.738914    0.600621   -0.505946    0.329776
O    -0.794173    0.355856   -0.246846    0.001757   -0.012643   -0.091243
10
* Frequency(15) 1104.5661
C    -2.093010   -1.618460    0.047320    0.012757   -0.034325   -0.259742
C    -0.794934   -0.864213   -0.247334   -0.019169    0.070950    0.477512
H    -2.950584   -0.972555   -0.303914    0.019983    0.078135    0.576483
H    -2.347258   -2.383091    0.849994    0.600028    0.570231    0.168641
H    -1.909849   -2.199800   -0.928662   -0.665008   -0.512035    0.222874
C     0.473393   -1.613954    0.163551    0.011420   -0.044234   -0.258696
H     0.710384   -2.275012    1.058537   -0.653305    0.563374    0.063285
H     1.337482   -0.992412   -0.216823    0.010116    0.097570    0.574812
H     0.344427   -2.284750   -0.759696    0.600621   -0.505946    0.329776
O    -0.794284    0.356652   -0.241096    0.001757   -0.012643   -0.091243
10
* Frequency(15) 1104.5661
C    -2.093371   -1.617489    0.054666    0.012757   -0.034325   -0.259742
C    -0.794392   -0.866220   -0.260840   -0.019169    0.070950    0.477512
H    -2.951149   -0.974765   -0.320219    0.019983    0.078135    0.576483
H    -2.364229   -2.399219    0.845224    0.600028    0.570231    0.168641
H    -1.891039   -2.185318   -0.934966   -0.665008   -0.512035    0.222874
C     0.473070   -1.612703    0.170868    0.011420   -0.044234   -0.258696
H     0.728862   -2.290947    1.056747   -0.653305    0.563374    0.063285
H     1.337196   -0.995171   -0.233081    0.010116    0.097570    0.574812
H     0.327439   -2.270440   -0.769023    0.600621   -0.505946    0.329776
O    -0.794334    0.357010   -0.238515    0.001757   -0.012643   -0.091243
10
* Frequency(15) 1104.5661
C    -2.093250   -1.617816    0.052195    0.012757   -0.034325   -0.259742
C    -0.794574   -0.865545   -0.256297   -0.019169    0.070950    0.477512
H    -2.950959   -0.974021   -0.314734    0.019983    0.078135    0.576483
H    -2.358520   -2.393794    0.846829    0.600028    0.570231    0.168641
H    -1.897367   -2.190190   -0.932845   -0.665008   -0.512035    0.222874
C     0.473179   -1.613124    0.168406    0.011420   -0.044234   -0.258696
H     0.722646   -2.285586    1.057349   -0.653305    0.563374    0.063285
H     1.337292   -0.994243   -0.227612    0.010116    0.097570    0.574812
H     0.333154   -2.275254   -0.765886    0.600621   -0.505946    0.329776
O    -0.794317    0.356890   -0.239383    0.001757   -0.012643   -0.091243
10
* Frequency(15) 1104.5661
C    -2.092659   -1.619404    0.040173    0.012757   -0.034325   -0.259742
C    -0.795462   -0.862261   -0.234197   -0.019169    0.070950    0.477512
H    -2.950034   -0.970405   -0.288053    0.019983    0.078135    0.576483
H    -2.330749   -2.367403    0.854634    0.600028    0.570231    0.168641
H    -1.928144   -2.213888   -0.922530   -0.665008   -0.512035    0.222874
C     0.473708   -1.615171    0.156433    0.011420   -0.044234   -0.258696
H     0.692410   -2.259512    1.060278   -0.653305    0.563374    0.063285
H     1.337760   -0.989727   -0.201009    0.010116    0.097570    0.574812
H     0.360952   -2.298670   -0.750623    0.600621   -0.505946    0.329776
O    -0.794235    0.356305   -0.243606    0.001757   -0.012643   -0.091243
10
* Frequency(15) 1104.5661
C    -2.091664   -1.622083    0.019905    0.012757   -0.034325   -0.259742
C    -0.796957   -0.856725   -0.196935   -0.019169    0.070950    0.477512
H    -2.948475   -0.964308   -0.243068    0.019983    0.078135    0.576483
H    -2.283927   -2.322905    0.867793    0.600028    0.570231    0.168641
H    -1.980038   -2.253844   -0.905138   -0.665008   -0.512035    0.222874
C     0.474599   -1.618623    0.136246    0.011420   -0.044234   -0.258696
H     0.641430   -2.215550    1.065217   -0.653305    0.563374    0.063285
H     1.338549   -0.982114   -0.156154    0.010116    0.097570    0.574812
H     0.407821   -2.338151   -0.724889    0.600621   -0.505946    0.329776
O    -0.794098    0.355318   -0.250726    0.001757   -0.012643   -0.091243
10
* Frequency(15) 1104.5661
C    -2.090371   -1.625561   -0.006415    0.012757   -0.034325   -0.259742
C    -0.798900   -0.849535   -0.148549   -0.019169    0.070950    0.477512
H    -2.946450   -0.956391   -0.184653    0.019983    0.078135    0.576483
H    -2.223126   -2.265124    0.884882    0.600028    0.570231    0.168641
H    -2.047423   -2.305728   -0.882555   -0.665008   -0.512035    0.222874
C     0.475756   -1.623105    0.110033    0.011420   -0.044234   -0.258696
H     0.575231   -2.158464    1.071629   -0.653305    0.563374    0.063285
H     1.339575   -0.972227   -0.097908    0.010116    0.097570    0.574812
H     0.468681   -2.389419   -0.691473    0.600621   -0.505946    0.329776
O    -0.793920    0.354037   -0.259972    0.001757   -0.012643   -0.091243
10
* Frequency(15) 1104.5661
C    -2.088921   -1.629462   -0.035933    0.012757   -0.034325   -0.259742
C    -0.801078   -0.841472   -0.094282   -0.019169    0.070950    0.477512
H    -2.944179   -0.947511   -0.119139    0.019983    0.078135    0.576483
H    -2.154936   -2.200320    0.904047    0.600028    0.570231    0.168641
H    -2.122997   -2.363918   -0.857226   -0.665008   -0.512035    0.222874
C     0.477054   -1.628132    0.080633    0.011420   -0.044234   -0.258696
H     0.500986   -2.094439    1.078821   -0.653305    0.563374    0.063285
H     1.340724   -0.961139   -0.032584    0.010116    0.097570    0.574812
H     0.536939   -2.446917   -0.653996    0.600621   -0.505946    0.329776
O    -0.793721    0.352600   -0.270341    0.001757   -0.012643   -0.091243
