10
* (null), Energy   -1000.0000000
C    -2.088921   -1.629462   -0.035933    0.492726    0.233189    0.014048
C    -0.801078   -0.841472   -0.094282   -0.001108   -0.254985    0.037292
H    -2.944179   -0.947511   -0.119139    0.845508    0.632352   -0.119966
H    -2.154936   -2.200320    0.904047    0.259336    0.224547   -0.024208
H    -2.122997   -2.363918   -0.857226    0.488795    0.358834   -0.085348
C     0.477054   -1.628132    0.080633   -0.489941    0.225822   -0.081534
H     0.500986   -2.094439    1.078821   -0.486371    0.371784   -0.023923
H     1.340724   -0.961139   -0.032584   -0.835930    0.648208   -0.069427
H     0.536939   -2.446917   -0.653996   -0.258918    0.226146   -0.041839
O    -0.793721    0.352600   -0.270341   -0.002042   -0.308277    0.045647
10
* Frequency(11)  811.3409
C    -2.032926   -1.602961   -0.034337    0.492726    0.233189    0.014048
C    -0.801204   -0.870450   -0.090044   -0.001108   -0.254985    0.037292
H    -2.848091   -0.875648   -0.132772    0.845508    0.632352   -0.119966
H    -2.125464   -2.174802    0.901296    0.259336    0.224547   -0.024208
H    -2.067448   -2.323139   -0.866925    0.488795    0.358834   -0.085348
C     0.421375   -1.602469    0.071367   -0.489941    0.225822   -0.081534
H     0.445713   -2.052188    1.076103   -0.486371    0.371784   -0.023923
H     1.245725   -0.887473   -0.040474   -0.835930    0.648208   -0.069427
H     0.507514   -2.421216   -0.658751   -0.258918    0.226146   -0.041839
O    -0.793953    0.317566   -0.265154   -0.002042   -0.308277    0.045647
10
* Frequency(11)  811.3409
C    -1.982998   -1.579332   -0.032913    0.492726    0.233189    0.014048
C    -0.801317   -0.896288   -0.086265   -0.001108   -0.254985    0.037292
H    -2.762416   -0.811572   -0.144929    0.845508    0.632352   -0.119966
H    -2.099186   -2.152048    0.898843    0.259336    0.224547   -0.024208
H    -2.017919   -2.286778   -0.875574    0.488795    0.358834   -0.085348
C     0.371729   -1.579586    0.063105   -0.489941    0.225822   -0.081534
H     0.396429   -2.014515    1.073678   -0.486371    0.371784   -0.023923
H     1.161021   -0.821791   -0.047509   -0.835930    0.648208   -0.069427
H     0.481278   -2.398301   -0.662991   -0.258918    0.226146   -0.041839
O    -0.794160    0.286328   -0.260528   -0.002042   -0.308277    0.045647
10
* Frequency(11)  811.3409
C    -1.944548   -1.561135   -0.031817    0.492726    0.233189    0.014048
C    -0.801403   -0.916185   -0.083355   -0.001108   -0.254985    0.037292
H    -2.696438   -0.762227   -0.154290    0.845508    0.632352   -0.119966
H    -2.078949   -2.134526    0.896954    0.259336    0.224547   -0.024208
H    -1.979777   -2.258777   -0.882234    0.488795    0.358834   -0.085348
C     0.333497   -1.561964    0.056743   -0.489941    0.225822   -0.081534
H     0.358476   -1.985503    1.071812   -0.486371    0.371784   -0.023923
H     1.095790   -0.771208   -0.052927   -0.835930    0.648208   -0.069427
H     0.461074   -2.380654   -0.666255   -0.258918    0.226146   -0.041839
O    -0.794319    0.262272   -0.256966   -0.002042   -0.308277    0.045647
10
* Frequency(11)  811.3409
C    -1.921744   -1.550343   -0.031167    0.492726    0.233189    0.014048
C    -0.801454   -0.927986   -0.081629   -0.001108   -0.254985    0.037292
H    -2.657306   -0.732960   -0.159842    0.845508    0.632352   -0.119966
H    -2.066946   -2.124134    0.895833    0.259336    0.224547   -0.024208
H    -1.957154   -2.242169   -0.886184    0.488795    0.358834   -0.085348
C     0.310822   -1.551513    0.052969   -0.489941    0.225822   -0.081534
H     0.335965   -1.968297    1.070704   -0.486371    0.371784   -0.023923
H     1.057101   -0.741208   -0.056140   -0.835930    0.648208   -0.069427
H     0.449091   -2.370188   -0.668192   -0.258918    0.226146   -0.041839
O    -0.794413    0.248005   -0.254854   -0.002042   -0.308277    0.045647
10
* Frequency(11)  811.3409
C    -1.917056   -1.548124   -0.031033    0.492726    0.233189    0.014048
C    -0.801465   -0.930412   -0.081274   -0.001108   -0.254985    0.037292
H    -2.649262   -0.726944   -0.160984    0.845508    0.632352   -0.119966
H    -2.064479   -2.121997    0.895603    0.259336    0.224547   -0.024208
H    -1.952504   -2.238755   -0.886996    0.488795    0.358834   -0.085348
C     0.306160   -1.549364    0.052194   -0.489941    0.225822   -0.081534
H     0.331338   -1.964759    1.070477   -0.486371    0.371784   -0.023923
H     1.049148   -0.735041   -0.056801   -0.835930    0.648208   -0.069427
H     0.446627   -2.368036   -0.668590   -0.258918    0.226146   -0.041839
O    -0.794433    0.245072   -0.254419   -0.002042   -0.308277    0.045647
10
* Frequency(11)  811.3409
C    -1.930992   -1.554720   -0.031431    0.492726    0.233189    0.014048
C    -0.801434   -0.923200   -0.082329   -0.001108   -0.254985    0.037292
H    -2.673176   -0.744829   -0.157591    0.845508    0.632352   -0.119966
H    -2.071814   -2.128348    0.896288    0.259336    0.224547   -0.024208
H    -1.966329   -2.248904   -0.884582    0.488795    0.358834   -0.085348
C     0.320018   -1.555751    0.054500   -0.489941    0.225822   -0.081534
H     0.345094   -1.975275    1.071153   -0.486371    0.371784   -0.023923
H     1.072791   -0.753375   -0.054837   -0.835930    0.648208   -0.069427
H     0.453950   -2.374432   -0.667407   -0.258918    0.226146   -0.041839
O    -0.794375    0.253791   -0.255710   -0.002042   -0.308277    0.045647
10
* Frequency(11)  811.3409
C    -1.962043   -1.569415   -0.032316    0.492726    0.233189    0.014048
C    -0.801364   -0.907132   -0.084679   -0.001108   -0.254985    0.037292
H    -2.726458   -0.784678   -0.150031    0.845508    0.632352   -0.119966
H    -2.088156   -2.142499    0.897813    0.259336    0.224547   -0.024208
H    -1.997131   -2.271517   -0.879203    0.488795    0.358834   -0.085348
C     0.350892   -1.569982    0.059638   -0.489941    0.225822   -0.081534
H     0.375744   -1.998704    1.072661   -0.486371    0.371784   -0.023923
H     1.125469   -0.794223   -0.050462   -0.835930    0.648208   -0.069427
H     0.470267   -2.388683   -0.664770   -0.258918    0.226146   -0.041839
O    -0.794246    0.273218   -0.258587   -0.002042   -0.308277    0.045647
10
* Frequency(11)  811.3409
C    -2.006842   -1.590617   -0.033593    0.492726    0.233189    0.014048
C    -0.801263   -0.883948   -0.088070   -0.001108   -0.254985    0.037292
H    -2.803333   -0.842173   -0.139123    0.845508    0.632352   -0.119966
H    -2.111736   -2.162915    0.900014    0.259336    0.224547   -0.024208
H    -2.041573   -2.304143   -0.871444    0.488795    0.358834   -0.085348
C     0.395439   -1.590514    0.067051   -0.489941    0.225822   -0.081534
H     0.419966   -2.032507    1.074836   -0.486371    0.371784   -0.023923
H     1.201474   -0.853159   -0.044149   -0.835930    0.648208   -0.069427
H     0.493808   -2.409245   -0.660966   -0.258918    0.226146   -0.041839
O    -0.794061    0.301247   -0.262737   -0.002042   -0.308277    0.045647
10
* Frequency(11)  811.3409
C    -2.060536   -1.616028   -0.035124    0.492726    0.233189    0.014048
C    -0.801142   -0.856161   -0.092134   -0.001108   -0.254985    0.037292
H    -2.895471   -0.911082   -0.126050    0.845508    0.632352   -0.119966
H    -2.139996   -2.187385    0.902652    0.259336    0.224547   -0.024208
H    -2.094839   -2.343246   -0.862143    0.488795    0.358834   -0.085348
C     0.448829   -1.615123    0.075936   -0.489941    0.225822   -0.081534
H     0.472967   -2.073021    1.077443   -0.486371    0.371784   -0.023923
H     1.292568   -0.923797   -0.036584   -0.835930    0.648208   -0.069427
H     0.522023   -2.433889   -0.656406   -0.258918    0.226146   -0.041839
O    -0.793838    0.334841   -0.267712   -0.002042   -0.308277    0.045647
10
* Frequency(11)  811.3409
C    -2.117306   -1.642895   -0.036742    0.492726    0.233189    0.014048
C    -0.801015   -0.826783   -0.096430   -0.001108   -0.254985    0.037292
H    -2.992887   -0.983940   -0.112228    0.845508    0.632352   -0.119966
H    -2.169876   -2.213256    0.905442    0.259336    0.224547   -0.024208
H    -2.151156   -2.384590   -0.852309    0.488795    0.358834   -0.085348
C     0.505278   -1.641141    0.085330   -0.489941    0.225822   -0.081534
H     0.529005   -2.115857    1.080199   -0.486371    0.371784   -0.023923
H     1.388880   -0.998481   -0.028584   -0.835930    0.648208   -0.069427
H     0.551855   -2.459944   -0.651586   -0.258918    0.226146   -0.041839
O    -0.793603    0.370359   -0.272971   -0.002042   -0.308277    0.045647
10
* Frequency(11)  811.3409
C    -2.171000   -1.668307   -0.038273    0.492726    0.233189    0.014048
C    -0.800894   -0.798996   -0.100494   -0.001108   -0.254985    0.037292
H    -3.085025   -1.052849   -0.099155    0.845508    0.632352   -0.119966
H    -2.198137   -2.237726    0.908080    0.259336    0.224547   -0.024208
H    -2.204422   -2.423693   -0.843009    0.488795    0.358834   -0.085348
C     0.558669   -1.665750    0.094215   -0.489941    0.225822   -0.081534
H     0.582006   -2.156371    1.082806   -0.486371    0.371784   -0.023923
H     1.479975   -1.069118   -0.021019   -0.835930    0.648208   -0.069427
H     0.580070   -2.484588   -0.647026   -0.258918    0.226146   -0.041839
O    -0.793380    0.403953   -0.277945   -0.002042   -0.308277    0.045647
10
* Frequency(11)  811.3409
C    -2.215800   -1.689509   -0.039551    0.492726    0.233189    0.014048
C    -0.800793   -0.775813   -0.103885   -0.001108   -0.254985    0.037292
H    -3.161900   -1.110344   -0.088247    0.845508    0.632352   -0.119966
H    -2.221716   -2.258142    0.910281    0.259336    0.224547   -0.024208
H    -2.248864   -2.456319   -0.835249    0.488795    0.358834   -0.085348
C     0.603215   -1.686282    0.101629   -0.489941    0.225822   -0.081534
H     0.626228   -2.190175    1.084982   -0.486371    0.371784   -0.023923
H     1.555979   -1.128054   -0.014706   -0.835930    0.648208   -0.069427
H     0.603611   -2.505150   -0.643222   -0.258918    0.226146   -0.041839
O    -0.793195    0.431982   -0.282095   -0.002042   -0.308277    0.045647
10
* Frequency(11)  811.3409
C    -2.246850   -1.704204   -0.040436    0.492726    0.233189    0.014048
C    -0.800723   -0.759744   -0.106235   -0.001108   -0.254985    0.037292
H    -3.215182   -1.150193   -0.080687    0.845508    0.632352   -0.119966
H    -2.238059   -2.272292    0.911806    0.259336    0.224547   -0.024208
H    -2.279666   -2.478932   -0.829870    0.488795    0.358834   -0.085348
C     0.634090   -1.700513    0.106767   -0.489941    0.225822   -0.081534
H     0.656878   -2.213603    1.086489   -0.486371    0.371784   -0.023923
H     1.608657   -1.168903   -0.010331   -0.835930    0.648208   -0.069427
H     0.619927   -2.519401   -0.640586   -0.258918    0.226146   -0.041839
O    -0.793066    0.451409   -0.284972   -0.002042   -0.308277    0.045647
10
* Frequency(11)  811.3409
C    -2.260787   -1.710799   -0.040833    0.492726    0.233189    0.014048
C    -0.800692   -0.752532   -0.107289   -0.001108   -0.254985    0.037292
H    -3.239096   -1.168078   -0.077294    0.845508    0.632352   -0.119966
H    -2.245394   -2.278643    0.912491    0.259336    0.224547   -0.024208
H    -2.293491   -2.489081   -0.827456    0.488795    0.358834   -0.085348
C     0.647947   -1.706900    0.109073   -0.489941    0.225822   -0.081534
H     0.670634   -2.224119    1.087166   -0.486371    0.371784   -0.023923
H     1.632300   -1.187236   -0.008367   -0.835930    0.648208   -0.069427
H     0.627250   -2.525797   -0.639402   -0.258918    0.226146   -0.041839
O    -0.793008    0.460128   -0.286263   -0.002042   -0.308277    0.045647
10
* Frequency(11)  811.3409
C    -2.256098   -1.708581   -0.040699    0.492726    0.233189    0.014048
C    -0.800702   -0.754958   -0.106935   -0.001108   -0.254985    0.037292
H    -3.231052   -1.162062   -0.078436    0.845508    0.632352   -0.119966
H    -2.242926   -2.276507    0.912261    0.259336    0.224547   -0.024208
H    -2.288841   -2.485667   -0.828268    0.488795    0.358834   -0.085348
C     0.643286   -1.704751    0.108297   -0.489941    0.225822   -0.081534
H     0.666007   -2.220582    1.086938   -0.486371    0.371784   -0.023923
H     1.624347   -1.181069   -0.009028   -0.835930    0.648208   -0.069427
H     0.624787   -2.523646   -0.639800   -0.258918    0.226146   -0.041839
O    -0.793028    0.457195   -0.285829   -0.002042   -0.308277    0.045647
10
* Frequency(11)  811.3409
C    -2.233294   -1.697788   -0.040049    0.492726    0.233189    0.014048
C    -0.800754   -0.766759   -0.105209   -0.001108   -0.254985    0.037292
H    -3.191920   -1.132795   -0.083988    0.845508    0.632352   -0.119966
H    -2.230924   -2.266114    0.911140    0.259336    0.224547   -0.024208
H    -2.266218   -2.469060   -0.832219    0.488795    0.358834   -0.085348
C     0.620610   -1.694300    0.104524   -0.489941    0.225822   -0.081534
H     0.643497   -2.203375    1.085831   -0.486371    0.371784   -0.023923
H     1.585659   -1.151069   -0.012241   -0.835930    0.648208   -0.069427
H     0.612804   -2.513179   -0.641737   -0.258918    0.226146   -0.041839
O    -0.793122    0.442928   -0.283716   -0.002042   -0.308277    0.045647
10
* Frequency(11)  811.3409
C    -2.194845   -1.679591   -0.038953    0.492726    0.233189    0.014048
C    -0.800840   -0.786657   -0.102299   -0.001108   -0.254985    0.037292
H    -3.125942   -1.083451   -0.093349    0.845508    0.632352   -0.119966
H    -2.210687   -2.248592    0.909251    0.259336    0.224547   -0.024208
H    -2.228076   -2.441058   -0.838879    0.488795    0.358834   -0.085348
C     0.582379   -1.676678    0.098161   -0.489941    0.225822   -0.081534
H     0.605543   -2.174363    1.083964   -0.486371    0.371784   -0.023923
H     1.520428   -1.100487   -0.017659   -0.835930    0.648208   -0.069427
H     0.592600   -2.495532   -0.645002   -0.258918    0.226146   -0.041839
O    -0.793282    0.418872   -0.280154   -0.002042   -0.308277    0.045647
10
* Frequency(11)  811.3409
C    -2.144917   -1.655963   -0.037530    0.492726    0.233189    0.014048
C    -0.800952   -0.812494   -0.098520   -0.001108   -0.254985    0.037292
H    -3.040267   -1.019375   -0.105505    0.845508    0.632352   -0.119966
H    -2.184408   -2.225839    0.906798    0.259336    0.224547   -0.024208
H    -2.178546   -2.404698   -0.847527    0.488795    0.358834   -0.085348
C     0.532733   -1.653796    0.089899   -0.489941    0.225822   -0.081534
H     0.556260   -2.136690    1.081540   -0.486371    0.371784   -0.023923
H     1.435723   -1.034804   -0.024694   -0.835930    0.648208   -0.069427
H     0.566363   -2.472617   -0.649241   -0.258918    0.226146   -0.041839
O    -0.793488    0.387634   -0.275529   -0.002042   -0.308277    0.045647
10
* Frequency(11)  811.3409
C    -2.088921   -1.629462   -0.035933    0.492726    0.233189    0.014048
C    -0.801078   -0.841472   -0.094282   -0.001108   -0.254985    0.037292
H    -2.944179   -0.947511   -0.119139    0.845508    0.632352   -0.119966
H    -2.154936   -2.200320    0.904047    0.259336    0.224547   -0.024208
H    -2.122997   -2.363918   -0.857226    0.488795    0.358834   -0.085348
C     0.477054   -1.628132    0.080633   -0.489941    0.225822   -0.081534
H     0.500986   -2.094439    1.078821   -0.486371    0.371784   -0.023923
H     1.340724   -0.961139   -0.032584   -0.835930    0.648208   -0.069427
H     0.536939   -2.446917   -0.653996   -0.258918    0.226146   -0.041839
O    -0.793721    0.352600   -0.270341   -0.002042   -0.308277    0.045647
