10
* (null), Energy   -1000.0000000
C    -2.088921   -1.629462   -0.035933    0.053858   -0.031820   -0.059089
C    -0.801078   -0.841472   -0.094282    0.000039    0.014749   -0.002426
H    -2.944179   -0.947511   -0.119139   -0.271481   -0.323339    0.764525
H    -2.154936   -2.200320    0.904047   -0.638227    0.683823    0.330981
H    -2.122997   -2.363918   -0.857226    0.251660    0.273674   -0.311535
C     0.477054   -1.628132    0.080633   -0.055657   -0.013410    0.064676
H     0.500986   -2.094439    1.078821   -0.236824    0.371442    0.225187
H     1.340724   -0.961139   -0.032584    0.274690   -0.541575   -0.623625
H     0.536939   -2.446917   -0.653996    0.643764    0.558934   -0.520910
O    -0.793721    0.352600   -0.270341   -0.000164   -0.041567    0.006156
10
* Frequency(21) 1436.1698
C    -2.082801   -1.633078   -0.042648    0.053858   -0.031820   -0.059089
C    -0.801074   -0.839796   -0.094558    0.000039    0.014749   -0.002426
H    -2.975031   -0.984257   -0.032255   -0.271481   -0.323339    0.764525
H    -2.227467   -2.122607    0.941661   -0.638227    0.683823    0.330981
H    -2.094398   -2.332817   -0.892630    0.251660    0.273674   -0.311535
C     0.470729   -1.629656    0.087983   -0.055657   -0.013410    0.064676
H     0.474072   -2.052227    1.104413   -0.236824    0.371442    0.225187
H     1.371941   -1.022686   -0.103456    0.274690   -0.541575   -0.623625
H     0.610099   -2.383397   -0.713195    0.643764    0.558934   -0.520910
O    -0.793739    0.347876   -0.269642   -0.000164   -0.041567    0.006156
10
* Frequency(21) 1436.1698
C    -2.077343   -1.636302   -0.048636    0.053858   -0.031820   -0.059089
C    -0.801070   -0.838302   -0.094803    0.000039    0.014749   -0.002426
H    -3.002541   -1.017021    0.045214   -0.271481   -0.323339    0.764525
H    -2.292139   -2.053316    0.975199   -0.638227    0.683823    0.330981
H    -2.068897   -2.305085   -0.924198    0.251660    0.273674   -0.311535
C     0.465089   -1.631015    0.094537   -0.055657   -0.013410    0.064676
H     0.450075   -2.014588    1.127231   -0.236824    0.371442    0.225187
H     1.399775   -1.077563   -0.166647    0.274690   -0.541575   -0.623625
H     0.675332   -2.326760   -0.765978    0.643764    0.558934   -0.520910
O    -0.793756    0.343664   -0.269018   -0.000164   -0.041567    0.006156
10
* Frequency(21) 1436.1698
C    -2.073141   -1.638785   -0.053247    0.053858   -0.031820   -0.059089
C    -0.801067   -0.837151   -0.094993    0.000039    0.014749   -0.002426
H    -3.023725   -1.042252    0.104873   -0.271481   -0.323339    0.764525
H    -2.341942   -1.999954    1.001027   -0.638227    0.683823    0.330981
H    -2.049259   -2.283730   -0.948508    0.251660    0.273674   -0.311535
C     0.460746   -1.632061    0.099584   -0.055657   -0.013410    0.064676
H     0.431595   -1.985603    1.144803   -0.236824    0.371442    0.225187
H     1.421211   -1.119824   -0.215311    0.274690   -0.541575   -0.623625
H     0.725567   -2.283144   -0.806627    0.643764    0.558934   -0.520910
O    -0.793769    0.340421   -0.268537   -0.000164   -0.041567    0.006156
10
* Frequency(21) 1436.1698
C    -2.070648   -1.640258   -0.055982    0.053858   -0.031820   -0.059089
C    -0.801065   -0.836468   -0.095105    0.000039    0.014749   -0.002426
H    -3.036290   -1.057217    0.140257   -0.271481   -0.323339    0.764525
H    -2.371480   -1.968306    1.016345   -0.638227    0.683823    0.330981
H    -2.037612   -2.271063   -0.962927    0.251660    0.273674   -0.311535
C     0.458170   -1.632682    0.102577   -0.055657   -0.013410    0.064676
H     0.420634   -1.968412    1.155225   -0.236824    0.371442    0.225187
H     1.433924   -1.144890   -0.244174    0.274690   -0.541575   -0.623625
H     0.755362   -2.257276   -0.830736    0.643764    0.558934   -0.520910
O    -0.793776    0.338497   -0.268252   -0.000164   -0.041567    0.006156
10
* Frequency(21) 1436.1698
C    -2.070136   -1.640561   -0.056544    0.053858   -0.031820   -0.059089
C    -0.801065   -0.836328   -0.095128    0.000039    0.014749   -0.002426
H    -3.038873   -1.060293    0.147531   -0.271481   -0.323339    0.764525
H    -2.377553   -1.961800    1.019494   -0.638227    0.683823    0.330981
H    -2.035217   -2.268460   -0.965891    0.251660    0.273674   -0.311535
C     0.457640   -1.632810    0.103193   -0.055657   -0.013410    0.064676
H     0.418381   -1.964878    1.157368   -0.236824    0.371442    0.225187
H     1.436537   -1.150042   -0.250107    0.274690   -0.541575   -0.623625
H     0.761487   -2.251958   -0.835692    0.643764    0.558934   -0.520910
O    -0.793778    0.338101   -0.268194   -0.000164   -0.041567    0.006156
10
* Frequency(21) 1436.1698
C    -2.071659   -1.639661   -0.054873    0.053858   -0.031820   -0.059089
C    -0.801066   -0.836745   -0.095059    0.000039    0.014749   -0.002426
H    -3.031194   -1.051148    0.125907   -0.271481   -0.323339    0.764525
H    -2.359501   -1.981141    1.010133   -0.638227    0.683823    0.330981
H    -2.042335   -2.276200   -0.957079    0.251660    0.273674   -0.311535
C     0.459215   -1.632430    0.101363   -0.055657   -0.013410    0.064676
H     0.425079   -1.975384    1.150998   -0.236824    0.371442    0.225187
H     1.428768   -1.134725   -0.232469    0.274690   -0.541575   -0.623625
H     0.743278   -2.267767   -0.820959    0.643764    0.558934   -0.520910
O    -0.793773    0.339277   -0.268368   -0.000164   -0.041567    0.006156
10
* Frequency(21) 1436.1698
C    -2.075053   -1.637656   -0.051149    0.053858   -0.031820   -0.059089
C    -0.801068   -0.837674   -0.094907    0.000039    0.014749   -0.002426
H    -3.014086   -1.030772    0.077729   -0.271481   -0.323339    0.764525
H    -2.319282   -2.024233    0.989276   -0.638227    0.683823    0.330981
H    -2.058194   -2.293446   -0.937447    0.251660    0.273674   -0.311535
C     0.462722   -1.631585    0.097288   -0.055657   -0.013410    0.064676
H     0.440003   -1.998791    1.136808   -0.236824    0.371442    0.225187
H     1.411458   -1.100596   -0.193170    0.274690   -0.541575   -0.623625
H     0.702710   -2.302989   -0.788132    0.643764    0.558934   -0.520910
O    -0.793763    0.341896   -0.268756   -0.000164   -0.041567    0.006156
10
* Frequency(21) 1436.1698
C    -2.079950   -1.634762   -0.045776    0.053858   -0.031820   -0.059089
C    -0.801072   -0.839015   -0.094686    0.000039    0.014749   -0.002426
H    -2.989403   -1.001373    0.008217   -0.271481   -0.323339    0.764525
H    -2.261253   -2.086408    0.959182   -0.638227    0.683823    0.330981
H    -2.081075   -2.318329   -0.909122    0.251660    0.273674   -0.311535
C     0.467782   -1.630366    0.091407   -0.055657   -0.013410    0.064676
H     0.461536   -2.032564    1.116333   -0.236824    0.371442    0.225187
H     1.386482   -1.051355   -0.136468    0.274690   -0.541575   -0.623625
H     0.644178   -2.353808   -0.740770    0.643764    0.558934   -0.520910
O    -0.793748    0.345676   -0.269316   -0.000164   -0.041567    0.006156
10
* Frequency(21) 1436.1698
C    -2.085819   -1.631295   -0.039337    0.053858   -0.031820   -0.059089
C    -0.801076   -0.840623   -0.094422    0.000039    0.014749   -0.002426
H    -2.959819   -0.966138   -0.075096   -0.271481   -0.323339    0.764525
H    -2.191703   -2.160926    0.923114   -0.638227    0.683823    0.330981
H    -2.108500   -2.348152   -0.875173    0.251660    0.273674   -0.311535
C     0.473848   -1.628905    0.084359   -0.055657   -0.013410    0.064676
H     0.487343   -2.073041    1.091794   -0.236824    0.371442    0.225187
H     1.356548   -0.992338   -0.068510    0.274690   -0.541575   -0.623625
H     0.574025   -2.414718   -0.684005    0.643764    0.558934   -0.520910
O    -0.793730    0.350205   -0.269987   -0.000164   -0.041567    0.006156
10
* Frequency(21) 1436.1698
C    -2.092024   -1.627629   -0.032529    0.053858   -0.031820   -0.059089
C    -0.801081   -0.842322   -0.094142    0.000039    0.014749   -0.002426
H    -2.928540   -0.928884   -0.163182   -0.271481   -0.323339    0.764525
H    -2.118169   -2.239714    0.884980   -0.638227    0.683823    0.330981
H    -2.137495   -2.379684   -0.839279    0.251660    0.273674   -0.311535
C     0.480260   -1.627360    0.076907   -0.055657   -0.013410    0.064676
H     0.514629   -2.115837    1.065849   -0.236824    0.371442    0.225187
H     1.324900   -0.929940    0.003342    0.274690   -0.541575   -0.623625
H     0.499853   -2.479116   -0.623987    0.643764    0.558934   -0.520910
O    -0.793711    0.354995   -0.270696   -0.000164   -0.041567    0.006156
10
* Frequency(21) 1436.1698
C    -2.097893   -1.624161   -0.026090    0.053858   -0.031820   -0.059089
C    -0.801085   -0.843929   -0.093878    0.000039    0.014749   -0.002426
H    -2.898955   -0.893649   -0.246495   -0.271481   -0.323339    0.764525
H    -2.048619   -2.314233    0.848912   -0.638227    0.683823    0.330981
H    -2.164919   -2.409507   -0.805330    0.251660    0.273674   -0.311535
C     0.486325   -1.625898    0.069859   -0.055657   -0.013410    0.064676
H     0.540437   -2.156315    1.041309   -0.236824    0.371442    0.225187
H     1.294966   -0.870922    0.071300    0.274690   -0.541575   -0.623625
H     0.429700   -2.540025   -0.567222    0.643764    0.558934   -0.520910
O    -0.793693    0.359524   -0.271367   -0.000164   -0.041567    0.006156
10
* Frequency(21) 1436.1698
C    -2.102790   -1.621268   -0.020717    0.053858   -0.031820   -0.059089
C    -0.801088   -0.845270   -0.093657    0.000039    0.014749   -0.002426
H    -2.874272   -0.864250   -0.316007   -0.271481   -0.323339    0.764525
H    -1.990591   -2.376407    0.818818   -0.638227    0.683823    0.330981
H    -2.187801   -2.434390   -0.777005    0.251660    0.273674   -0.311535
C     0.491386   -1.624679    0.063979   -0.055657   -0.013410    0.064676
H     0.561969   -2.190087    1.020835   -0.236824    0.371442    0.225187
H     1.269991   -0.821681    0.128001    0.274690   -0.541575   -0.623625
H     0.371167   -2.590844   -0.519860    0.643764    0.558934   -0.520910
O    -0.793678    0.363304   -0.271926   -0.000164   -0.041567    0.006156
10
* Frequency(21) 1436.1698
C    -2.106184   -1.619263   -0.016994    0.053858   -0.031820   -0.059089
C    -0.801091   -0.846200   -0.093504    0.000039    0.014749   -0.002426
H    -2.857164   -0.843874   -0.364185   -0.271481   -0.323339    0.764525
H    -1.950371   -2.419500    0.797961   -0.638227    0.683823    0.330981
H    -2.203660   -2.451636   -0.757373    0.251660    0.273674   -0.311535
C     0.494893   -1.623834    0.059903   -0.055657   -0.013410    0.064676
H     0.576893   -2.213494    1.006644   -0.236824    0.371442    0.225187
H     1.252680   -0.787553    0.167301    0.274690   -0.541575   -0.623625
H     0.330599   -2.626067   -0.487034    0.643764    0.558934   -0.520910
O    -0.793668    0.365923   -0.272314   -0.000164   -0.041567    0.006156
10
* Frequency(21) 1436.1698
C    -2.107707   -1.618363   -0.015323    0.053858   -0.031820   -0.059089
C    -0.801092   -0.846617   -0.093436    0.000039    0.014749   -0.002426
H    -2.849485   -0.834729   -0.385809   -0.271481   -0.323339    0.764525
H    -1.932320   -2.438841    0.788599   -0.638227    0.683823    0.330981
H    -2.210778   -2.459377   -0.748561    0.251660    0.273674   -0.311535
C     0.496467   -1.623454    0.058074   -0.055657   -0.013410    0.064676
H     0.583591   -2.224000    1.000275   -0.236824    0.371442    0.225187
H     1.244911   -0.772235    0.184939    0.274690   -0.541575   -0.623625
H     0.312391   -2.641876   -0.472300    0.643764    0.558934   -0.520910
O    -0.793663    0.367099   -0.272489   -0.000164   -0.041567    0.006156
10
* Frequency(21) 1436.1698
C    -2.107195   -1.618666   -0.015885    0.053858   -0.031820   -0.059089
C    -0.801092   -0.846476   -0.093459    0.000039    0.014749   -0.002426
H    -2.852068   -0.837805   -0.378535   -0.271481   -0.323339    0.764525
H    -1.938392   -2.432335    0.791749   -0.638227    0.683823    0.330981
H    -2.208383   -2.456773   -0.751526    0.251660    0.273674   -0.311535
C     0.495938   -1.623582    0.058689   -0.055657   -0.013410    0.064676
H     0.581338   -2.220466    1.002417   -0.236824    0.371442    0.225187
H     1.247525   -0.777388    0.179006    0.274690   -0.541575   -0.623625
H     0.318516   -2.636558   -0.477256    0.643764    0.558934   -0.520910
O    -0.793665    0.366703   -0.272430   -0.000164   -0.041567    0.006156
10
* Frequency(21) 1436.1698
C    -2.104702   -1.620138   -0.018620    0.053858   -0.031820   -0.059089
C    -0.801090   -0.845794   -0.093571    0.000039    0.014749   -0.002426
H    -2.864633   -0.852770   -0.343151   -0.271481   -0.323339    0.764525
H    -1.967930   -2.400686    0.807067   -0.638227    0.683823    0.330981
H    -2.196736   -2.444107   -0.765944    0.251660    0.273674   -0.311535
C     0.493362   -1.624203    0.061683   -0.055657   -0.013410    0.064676
H     0.570377   -2.203275    1.012839   -0.236824    0.371442    0.225187
H     1.260238   -0.802453    0.150143    0.274690   -0.541575   -0.623625
H     0.348311   -2.610689   -0.501365    0.643764    0.558934   -0.520910
O    -0.793672    0.364780   -0.272145   -0.000164   -0.041567    0.006156
10
* Frequency(21) 1436.1698
C    -2.100499   -1.622621   -0.023231    0.053858   -0.031820   -0.059089
C    -0.801087   -0.844643   -0.093760    0.000039    0.014749   -0.002426
H    -2.885818   -0.878001   -0.283492   -0.271481   -0.323339    0.764525
H    -2.017734   -2.347325    0.832895   -0.638227    0.683823    0.330981
H    -2.177098   -2.422751   -0.790254    0.251660    0.273674   -0.311535
C     0.489019   -1.625249    0.066730   -0.055657   -0.013410    0.064676
H     0.551897   -2.174290    1.030412   -0.236824    0.371442    0.225187
H     1.281673   -0.844714    0.101479    0.274690   -0.541575   -0.623625
H     0.398546   -2.567073   -0.542014    0.643764    0.558934   -0.520910
O    -0.793685    0.361536   -0.271665   -0.000164   -0.041567    0.006156
10
* Frequency(21) 1436.1698
C    -2.095042   -1.625846   -0.029218    0.053858   -0.031820   -0.059089
C    -0.801083   -0.843148   -0.094006    0.000039    0.014749   -0.002426
H    -2.913327   -0.910765   -0.206023   -0.271481   -0.323339    0.764525
H    -2.082405   -2.278033    0.866433   -0.638227    0.683823    0.330981
H    -2.151597   -2.395020   -0.821822    0.251660    0.273674   -0.311535
C     0.483379   -1.626608    0.073283   -0.055657   -0.013410    0.064676
H     0.527900   -2.136652    1.053230   -0.236824    0.371442    0.225187
H     1.309507   -0.899591    0.038288    0.274690   -0.541575   -0.623625
H     0.463778   -2.510437   -0.594797    0.643764    0.558934   -0.520910
O    -0.793702    0.357324   -0.271041   -0.000164   -0.041567    0.006156
10
* Frequency(21) 1436.1698
C    -2.088921   -1.629462   -0.035933    0.053858   -0.031820   -0.059089
C    -0.801078   -0.841472   -0.094282    0.000039    0.014749   -0.002426
H    -2.944179   -0.947511   -0.119139   -0.271481   -0.323339    0.764525
H    -2.154936   -2.200320    0.904047   -0.638227    0.683823    0.330981
H    -2.122997   -2.363918   -0.857226    0.251660    0.273674   -0.311535
C     0.477054   -1.628132    0.080633   -0.055657   -0.013410    0.064676
H     0.500986   -2.094439    1.078821   -0.236824    0.371442    0.225187
H     1.340724   -0.961139   -0.032584    0.274690   -0.541575   -0.623625
H     0.536939   -2.446917   -0.653996    0.643764    0.558934   -0.520910
O    -0.793721    0.352600   -0.270341   -0.000164   -0.041567    0.006156
