10
* (null), Energy   -1000.0000000
C    -2.088921   -1.629462   -0.035933    0.108585   -0.096420    0.017047
C    -0.801078   -0.841472   -0.094282   -0.571374    0.000072   -0.023711
H    -2.944179   -0.947511   -0.119139    0.792935    0.737028   -0.076323
H    -2.154936   -2.200320    0.904047    0.282758    0.381193    0.285072
H    -2.122997   -2.363918   -0.857226    0.302867    0.346254   -0.350553
C     0.477054   -1.628132    0.080633    0.110255    0.095130   -0.011046
H     0.500986   -2.094439    1.078821    0.299733   -0.432676   -0.232482
H     1.340724   -0.961139   -0.032584    0.782070   -0.734674    0.143463
H     0.536939   -2.446917   -0.653996    0.273952   -0.283014    0.380384
O    -0.793721    0.352600   -0.270341    0.092386    0.000025    0.003873
10
* Frequency(16) 1237.2284
C    -2.076581   -1.640419   -0.033996    0.108585   -0.096420    0.017047
C    -0.866012   -0.841464   -0.096976   -0.571374    0.000072   -0.023711
H    -2.854066   -0.863752   -0.127813    0.792935    0.737028   -0.076323
H    -2.122802   -2.157000    0.936444    0.282758    0.381193    0.285072
H    -2.088578   -2.324568   -0.897065    0.302867    0.346254   -0.350553
C     0.489584   -1.617321    0.079378    0.110255    0.095130   -0.011046
H     0.535049   -2.143610    1.052401    0.299733   -0.432676   -0.232482
H     1.429602   -1.044631   -0.016280    0.782070   -0.734674    0.143463
H     0.568072   -2.479080   -0.610767    0.273952   -0.283014    0.380384
O    -0.783221    0.352603   -0.269901    0.092386    0.000025    0.003873
10
* Frequency(16) 1237.2284
C    -2.065578   -1.650190   -0.032268    0.108585   -0.096420    0.017047
C    -0.923909   -0.841457   -0.099379   -0.571374    0.000072   -0.023711
H    -2.773718   -0.789069   -0.135546    0.792935    0.737028   -0.076323
H    -2.094150   -2.118373    0.965330    0.282758    0.381193    0.285072
H    -2.057889   -2.289482   -0.932586    0.302867    0.346254   -0.350553
C     0.500756   -1.607681    0.078259    0.110255    0.095130   -0.011046
H     0.565421   -2.187453    1.028844    0.299733   -0.432676   -0.232482
H     1.508849   -1.119075   -0.001743    0.782070   -0.734674    0.143463
H     0.595832   -2.507757   -0.572223    0.273952   -0.283014    0.380384
O    -0.773860    0.352605   -0.269509    0.092386    0.000025    0.003873
10
* Frequency(16) 1237.2284
C    -2.057105   -1.657714   -0.030938    0.108585   -0.096420    0.017047
C    -0.968496   -0.841451   -0.101229   -0.571374    0.000072   -0.023711
H    -2.711842   -0.731556   -0.141502    0.792935    0.737028   -0.076323
H    -2.072086   -2.088628    0.987575    0.282758    0.381193    0.285072
H    -2.034255   -2.262463   -0.959941    0.302867    0.346254   -0.350553
C     0.509360   -1.600258    0.077397    0.110255    0.095130   -0.011046
H     0.588810   -2.221217    1.010702    0.299733   -0.432676   -0.232482
H     1.569877   -1.176404    0.009452    0.782070   -0.734674    0.143463
H     0.617209   -2.529842   -0.542540    0.273952   -0.283014    0.380384
O    -0.766651    0.352607   -0.269206    0.092386    0.000025    0.003873
10
* Frequency(16) 1237.2284
C    -2.052079   -1.662176   -0.030149    0.108585   -0.096420    0.017047
C    -0.994940   -0.841448   -0.102327   -0.571374    0.000072   -0.023711
H    -2.675144   -0.697445   -0.145035    0.792935    0.737028   -0.076323
H    -2.058999   -2.070985    1.000769    0.282758    0.381193    0.285072
H    -2.020238   -2.246438   -0.976165    0.302867    0.346254   -0.350553
C     0.514462   -1.595855    0.076885    0.110255    0.095130   -0.011046
H     0.602683   -2.241242    0.999942    0.299733   -0.432676   -0.232482
H     1.606073   -1.210406    0.016092    0.782070   -0.734674    0.143463
H     0.629888   -2.542940   -0.524935    0.273952   -0.283014    0.380384
O    -0.762375    0.352609   -0.269027    0.092386    0.000025    0.003873
10
* Frequency(16) 1237.2284
C    -2.051046   -1.663093   -0.029987    0.108585   -0.096420    0.017047
C    -1.000376   -0.841447   -0.102552   -0.571374    0.000072   -0.023711
H    -2.667600   -0.690432   -0.145761    0.792935    0.737028   -0.076323
H    -2.056309   -2.067358    1.003481    0.282758    0.381193    0.285072
H    -2.017356   -2.243143   -0.979501    0.302867    0.346254   -0.350553
C     0.515511   -1.594950    0.076780    0.110255    0.095130   -0.011046
H     0.605534   -2.245358    0.997730    0.299733   -0.432676   -0.232482
H     1.613514   -1.217396    0.017457    0.782070   -0.734674    0.143463
H     0.632495   -2.545633   -0.521316    0.273952   -0.283014    0.380384
O    -0.761496    0.352609   -0.268990    0.092386    0.000025    0.003873
10
* Frequency(16) 1237.2284
C    -2.054118   -1.660366   -0.030469    0.108585   -0.096420    0.017047
C    -0.984215   -0.841449   -0.101882   -0.571374    0.000072   -0.023711
H    -2.690027   -0.711278   -0.143602    0.792935    0.737028   -0.076323
H    -2.064306   -2.078140    0.995418    0.282758    0.381193    0.285072
H    -2.025922   -2.252937   -0.969586    0.302867    0.346254   -0.350553
C     0.512393   -1.597641    0.077093    0.110255    0.095130   -0.011046
H     0.597057   -2.233121    1.004306    0.299733   -0.432676   -0.232482
H     1.591394   -1.196617    0.013399    0.782070   -0.734674    0.143463
H     0.624746   -2.537628   -0.532075    0.273952   -0.283014    0.380384
O    -0.764109    0.352608   -0.269100    0.092386    0.000025    0.003873
10
* Frequency(16) 1237.2284
C    -2.060960   -1.654290   -0.031543    0.108585   -0.096420    0.017047
C    -0.948209   -0.841454   -0.100387   -0.571374    0.000072   -0.023711
H    -2.739996   -0.757724   -0.138792    0.792935    0.737028   -0.076323
H    -2.082125   -2.102162    0.977454    0.282758    0.381193    0.285072
H    -2.045008   -2.274757   -0.947495    0.302867    0.346254   -0.350553
C     0.505445   -1.603636    0.077789    0.110255    0.095130   -0.011046
H     0.578168   -2.205855    1.018956    0.299733   -0.432676   -0.232482
H     1.542110   -1.150320    0.004358    0.782070   -0.734674    0.143463
H     0.607482   -2.519794   -0.556046    0.273952   -0.283014    0.380384
O    -0.769931    0.352607   -0.269344    0.092386    0.000025    0.003873
10
* Frequency(16) 1237.2284
C    -2.070833   -1.645524   -0.033093    0.108585   -0.096420    0.017047
C    -0.896259   -0.841460   -0.098232   -0.571374    0.000072   -0.023711
H    -2.812091   -0.824736   -0.131853    0.792935    0.737028   -0.076323
H    -2.107834   -2.136821    0.951535    0.282758    0.381193    0.285072
H    -2.072545   -2.306239   -0.915622    0.302867    0.346254   -0.350553
C     0.495420   -1.612285    0.078793    0.110255    0.095130   -0.011046
H     0.550916   -2.166515    1.040094    0.299733   -0.432676   -0.232482
H     1.471003   -1.083522   -0.008686    0.782070   -0.734674    0.143463
H     0.582574   -2.494062   -0.590631    0.273952   -0.283014    0.380384
O    -0.778331    0.352604   -0.269696    0.092386    0.000025    0.003873
10
* Frequency(16) 1237.2284
C    -2.082666   -1.635016   -0.034951    0.108585   -0.096420    0.017047
C    -0.833994   -0.841468   -0.095648   -0.571374    0.000072   -0.023711
H    -2.898500   -0.905052   -0.123536    0.792935    0.737028   -0.076323
H    -2.138647   -2.178360    0.920469    0.282758    0.381193    0.285072
H    -2.105550   -2.343971   -0.877421    0.302867    0.346254   -0.350553
C     0.483405   -1.622652    0.079997    0.110255    0.095130   -0.011046
H     0.518253   -2.119365    1.065428    0.299733   -0.432676   -0.232482
H     1.385778   -1.003462   -0.024319    0.782070   -0.734674    0.143463
H     0.552721   -2.463221   -0.632083    0.273952   -0.283014    0.380384
O    -0.788398    0.352602   -0.270118    0.092386    0.000025    0.003873
10
* Frequency(16) 1237.2284
C    -2.095177   -1.623907   -0.036915    0.108585   -0.096420    0.017047
C    -0.768163   -0.841476   -0.092916   -0.571374    0.000072   -0.023711
H    -2.989859   -0.989970   -0.114742    0.792935    0.737028   -0.076323
H    -2.171225   -2.222280    0.887624    0.282758    0.381193    0.285072
H    -2.140445   -2.383865   -0.837031    0.302867    0.346254   -0.350553
C     0.470702   -1.633612    0.081270    0.110255    0.095130   -0.011046
H     0.483719   -2.069513    1.092214    0.299733   -0.432676   -0.232482
H     1.295671   -0.918815   -0.040849    0.782070   -0.734674    0.143463
H     0.521157   -2.430613   -0.675909    0.273952   -0.283014    0.380384
O    -0.799043    0.352599   -0.270564    0.092386    0.000025    0.003873
10
* Frequency(16) 1237.2284
C    -2.107010   -1.613400   -0.038773    0.108585   -0.096420    0.017047
C    -0.705898   -0.841484   -0.090332   -0.571374    0.000072   -0.023711
H    -3.076267   -1.070286   -0.106425    0.792935    0.737028   -0.076323
H    -2.202038   -2.263820    0.856559    0.282758    0.381193    0.285072
H    -2.173450   -2.421598   -0.798830    0.302867    0.346254   -0.350553
C     0.458687   -1.643979    0.082473    0.110255    0.095130   -0.011046
H     0.451056   -2.022363    1.117548    0.299733   -0.432676   -0.232482
H     1.210446   -0.838755   -0.056482    0.782070   -0.734674    0.143463
H     0.491303   -2.399772   -0.717361    0.273952   -0.283014    0.380384
O    -0.809110    0.352596   -0.270986    0.092386    0.000025    0.003873
10
* Frequency(16) 1237.2284
C    -2.116882   -1.604633   -0.040323    0.108585   -0.096420    0.017047
C    -0.653948   -0.841491   -0.088176   -0.571374    0.000072   -0.023711
H    -3.148363   -1.137298   -0.099486    0.792935    0.737028   -0.076323
H    -2.227747   -2.298479    0.830640    0.282758    0.381193    0.285072
H    -2.200987   -2.453080   -0.766957    0.302867    0.346254   -0.350553
C     0.448663   -1.652629    0.083478    0.110255    0.095130   -0.011046
H     0.423804   -1.983024    1.138686    0.299733   -0.432676   -0.232482
H     1.139338   -0.771958   -0.069526    0.782070   -0.734674    0.143463
H     0.466395   -2.374040   -0.751946    0.273952   -0.283014    0.380384
O    -0.817510    0.352594   -0.271338    0.092386    0.000025    0.003873
10
* Frequency(16) 1237.2284
C    -2.123725   -1.598557   -0.041397    0.108585   -0.096420    0.017047
C    -0.617941   -0.841495   -0.086682   -0.571374    0.000072   -0.023711
H    -3.198331   -1.183744   -0.094676    0.792935    0.737028   -0.076323
H    -2.245566   -2.322501    0.812675    0.282758    0.381193    0.285072
H    -2.220073   -2.474900   -0.744867    0.302867    0.346254   -0.350553
C     0.441715   -1.658623    0.084174    0.110255    0.095130   -0.011046
H     0.404915   -1.955758    1.153337    0.299733   -0.432676   -0.232482
H     1.090054   -0.725660   -0.078567    0.782070   -0.734674    0.143463
H     0.449131   -2.356205   -0.775917    0.273952   -0.283014    0.380384
O    -0.823332    0.352592   -0.271582    0.092386    0.000025    0.003873
10
* Frequency(16) 1237.2284
C    -2.126796   -1.595830   -0.041879    0.108585   -0.096420    0.017047
C    -0.601781   -0.841497   -0.086011   -0.571374    0.000072   -0.023711
H    -3.220759   -1.204590   -0.092517    0.792935    0.737028   -0.076323
H    -2.253563   -2.333282    0.804613    0.282758    0.381193    0.285072
H    -2.228639   -2.484693   -0.734952    0.302867    0.346254   -0.350553
C     0.438596   -1.661314    0.084486    0.110255    0.095130   -0.011046
H     0.396438   -1.943520    1.159912    0.299733   -0.432676   -0.232482
H     1.067934   -0.704881   -0.082625    0.782070   -0.734674    0.143463
H     0.441383   -2.348200   -0.786676    0.273952   -0.283014    0.380384
O    -0.825945    0.352591   -0.271692    0.092386    0.000025    0.003873
10
* Frequency(16) 1237.2284
C    -2.125763   -1.596747   -0.041717    0.108585   -0.096420    0.017047
C    -0.607217   -0.841497   -0.086237   -0.571374    0.000072   -0.023711
H    -3.213214   -1.197577   -0.093243    0.792935    0.737028   -0.076323
H    -2.250873   -2.329655    0.807325    0.282758    0.381193    0.285072
H    -2.225757   -2.481399   -0.738287    0.302867    0.346254   -0.350553
C     0.439645   -1.660409    0.084381    0.110255    0.095130   -0.011046
H     0.399290   -1.947637    1.157700    0.299733   -0.432676   -0.232482
H     1.075375   -0.711871   -0.081260    0.782070   -0.734674    0.143463
H     0.443989   -2.350893   -0.783057    0.273952   -0.283014    0.380384
O    -0.825066    0.352592   -0.271655    0.092386    0.000025    0.003873
10
* Frequency(16) 1237.2284
C    -2.120738   -1.601210   -0.040928    0.108585   -0.096420    0.017047
C    -0.633661   -0.841493   -0.087334   -0.571374    0.000072   -0.023711
H    -3.176516   -1.163466   -0.096776    0.792935    0.737028   -0.076323
H    -2.237787   -2.312013    0.820518    0.282758    0.381193    0.285072
H    -2.211740   -2.465374   -0.754511    0.302867    0.346254   -0.350553
C     0.444748   -1.656006    0.083870    0.110255    0.095130   -0.011046
H     0.413162   -1.967662    1.146940    0.299733   -0.432676   -0.232482
H     1.111571   -0.745873   -0.074620    0.782070   -0.734674    0.143463
H     0.456669   -2.363991   -0.765452    0.273952   -0.283014    0.380384
O    -0.820790    0.352593   -0.271476    0.092386    0.000025    0.003873
10
* Frequency(16) 1237.2284
C    -2.112264   -1.608734   -0.039598    0.108585   -0.096420    0.017047
C    -0.678248   -0.841488   -0.089185   -0.571374    0.000072   -0.023711
H    -3.114640   -1.105953   -0.102731    0.792935    0.737028   -0.076323
H    -2.215722   -2.282267    0.842764    0.282758    0.381193    0.285072
H    -2.188106   -2.438354   -0.781866    0.302867    0.346254   -0.350553
C     0.453352   -1.648583    0.083008    0.110255    0.095130   -0.011046
H     0.436551   -2.001425    1.128799    0.299733   -0.432676   -0.232482
H     1.172599   -0.803202   -0.063425    0.782070   -0.734674    0.143463
H     0.478046   -2.386076   -0.735769    0.273952   -0.283014    0.380384
O    -0.813581    0.352595   -0.271174    0.092386    0.000025    0.003873
10
* Frequency(16) 1237.2284
C    -2.101261   -1.618504   -0.037871    0.108585   -0.096420    0.017047
C    -0.736145   -0.841480   -0.091587   -0.571374    0.000072   -0.023711
H    -3.034292   -1.031271   -0.110465    0.792935    0.737028   -0.076323
H    -2.187070   -2.243641    0.871650    0.282758    0.381193    0.285072
H    -2.157417   -2.403268   -0.817388    0.302867    0.346254   -0.350553
C     0.464524   -1.638943    0.081889    0.110255    0.095130   -0.011046
H     0.466923   -2.045268    1.105242    0.299733   -0.432676   -0.232482
H     1.251846   -0.877647   -0.048888    0.782070   -0.734674    0.143463
H     0.505806   -2.414754   -0.697225    0.273952   -0.283014    0.380384
O    -0.804220    0.352597   -0.270781    0.092386    0.000025    0.003873
10
* Frequency(16) 1237.2284
C    -2.088921   -1.629462   -0.035933    0.108585   -0.096420    0.017047
C    -0.801078   -0.841472   -0.094282   -0.571374    0.000072   -0.023711
H    -2.944179   -0.947511   -0.119139    0.792935    0.737028   -0.076323
H    -2.154936   -2.200320    0.904047    0.282758    0.381193    0.285072
H    -2.122997   -2.363918   -0.857226    0.302867    0.346254   -0.350553
C     0.477054   -1.628132    0.080633    0.110255    0.095130   -0.011046
H     0.500986   -2.094439    1.078821    0.299733   -0.432676   -0.232482
H     1.340724   -0.961139   -0.032584    0.782070   -0.734674    0.143463
H     0.536939   -2.446917   -0.653996    0.273952   -0.283014    0.380384
O    -0.793721    0.352600   -0.270341    0.092386    0.000025    0.003873
