10
* (null), Energy   -1000.0000000
C    -2.088921   -1.629462   -0.035933    0.178841    0.124576   -0.006069
C    -0.801078   -0.841472   -0.094282   -0.004053   -0.007155    0.000679
H    -2.944179   -0.947511   -0.119139   -0.382853   -0.568601    0.022659
H    -2.154936   -2.200320    0.904047   -0.660385   -0.417149   -0.375614
H    -2.122997   -2.363918   -0.857226   -0.695052   -0.328702    0.413769
C     0.477054   -1.628132    0.080633   -0.171794    0.120736   -0.030111
H     0.500986   -2.094439    1.078821    0.680114   -0.435614   -0.292504
H     1.340724   -0.961139   -0.032584    0.374220   -0.548981    0.142459
H     0.536939   -2.446917   -0.653996    0.641905   -0.293546    0.474762
O    -0.793721    0.352600   -0.270341    0.000401   -0.015449    0.002362
10
* Frequency(17) 1355.5058
C    -2.068597   -1.615304   -0.036623    0.178841    0.124576   -0.006069
C    -0.801539   -0.842285   -0.094205   -0.004053   -0.007155    0.000679
H    -2.987688   -1.012130   -0.116564   -0.382853   -0.568601    0.022659
H    -2.229985   -2.247727    0.861360   -0.660385   -0.417149   -0.375614
H    -2.201986   -2.401273   -0.810203   -0.695052   -0.328702    0.413769
C     0.457530   -1.614411    0.077211   -0.171794    0.120736   -0.030111
H     0.578278   -2.143944    1.045580    0.680114   -0.435614   -0.292504
H     1.383252   -1.023528   -0.016394    0.374220   -0.548981    0.142459
H     0.609888   -2.480277   -0.600042    0.641905   -0.293546    0.474762
O    -0.793675    0.350844   -0.270073    0.000401   -0.015449    0.002362
10
* Frequency(17) 1355.5058
C    -2.050475   -1.602681   -0.037238    0.178841    0.124576   -0.006069
C    -0.801950   -0.843010   -0.094136   -0.004053   -0.007155    0.000679
H    -3.026483   -1.069746   -0.114268   -0.382853   -0.568601    0.022659
H    -2.296902   -2.289997    0.823300   -0.660385   -0.417149   -0.375614
H    -2.272416   -2.434581   -0.768276   -0.695052   -0.328702    0.413769
C     0.440123   -1.602177    0.074160   -0.171794    0.120736   -0.030111
H     0.647193   -2.188085    1.015940    0.680114   -0.435614   -0.292504
H     1.421172   -1.079156   -0.001959    0.374220   -0.548981    0.142459
H     0.674932   -2.510022   -0.551934    0.641905   -0.293546    0.474762
O    -0.793634    0.349279   -0.269833    0.000401   -0.015449    0.002362
10
* Frequency(17) 1355.5058
C    -2.036519   -1.592960   -0.037712    0.178841    0.124576   -0.006069
C    -0.802266   -0.843569   -0.094083   -0.004053   -0.007155    0.000679
H    -3.056358   -1.114116   -0.112500   -0.382853   -0.568601    0.022659
H    -2.348434   -2.322548    0.793989   -0.660385   -0.417149   -0.375614
H    -2.326653   -2.460231   -0.735988   -0.695052   -0.328702    0.413769
C     0.426717   -1.592756    0.071811   -0.171794    0.120736   -0.030111
H     0.700265   -2.222078    0.993115    0.680114   -0.435614   -0.292504
H     1.450374   -1.121995    0.009158    0.374220   -0.548981    0.142459
H     0.725022   -2.532928   -0.514887    0.641905   -0.293546    0.474762
O    -0.793603    0.348074   -0.269649    0.000401   -0.015449    0.002362
10
* Frequency(17) 1355.5058
C    -2.028242   -1.587195   -0.037992    0.178841    0.124576   -0.006069
C    -0.802454   -0.843900   -0.094051   -0.004053   -0.007155    0.000679
H    -3.074077   -1.140432   -0.111451   -0.382853   -0.568601    0.022659
H    -2.378998   -2.341855    0.776605   -0.660385   -0.417149   -0.375614
H    -2.358822   -2.475443   -0.716838   -0.695052   -0.328702    0.413769
C     0.418766   -1.587168    0.070417   -0.171794    0.120736   -0.030111
H     0.731742   -2.242239    0.979577    0.680114   -0.435614   -0.292504
H     1.467693   -1.147403    0.015751    0.374220   -0.548981    0.142459
H     0.754731   -2.546514   -0.492914    0.641905   -0.293546    0.474762
O    -0.793584    0.347359   -0.269540    0.000401   -0.015449    0.002362
10
* Frequency(17) 1355.5058
C    -2.026541   -1.586009   -0.038050    0.178841    0.124576   -0.006069
C    -0.802492   -0.843968   -0.094045   -0.004053   -0.007155    0.000679
H    -3.077720   -1.145842   -0.111236   -0.382853   -0.568601    0.022659
H    -2.385281   -2.345824    0.773031   -0.660385   -0.417149   -0.375614
H    -2.365435   -2.478571   -0.712901   -0.695052   -0.328702    0.413769
C     0.417131   -1.586019    0.070131   -0.171794    0.120736   -0.030111
H     0.738213   -2.246383    0.976794    0.680114   -0.435614   -0.292504
H     1.471254   -1.152626    0.017106    0.374220   -0.548981    0.142459
H     0.760838   -2.549307   -0.488397    0.641905   -0.293546    0.474762
O    -0.793581    0.347212   -0.269517    0.000401   -0.015449    0.002362
10
* Frequency(17) 1355.5058
C    -2.031599   -1.589533   -0.037879    0.178841    0.124576   -0.006069
C    -0.802378   -0.843765   -0.094064   -0.004053   -0.007155    0.000679
H    -3.066891   -1.129759   -0.111876   -0.382853   -0.568601    0.022659
H    -2.366603   -2.334025    0.783655   -0.660385   -0.417149   -0.375614
H    -2.345776   -2.469274   -0.724605   -0.695052   -0.328702    0.413769
C     0.421990   -1.589434    0.070982   -0.171794    0.120736   -0.030111
H     0.718977   -2.234062    0.985068    0.680114   -0.435614   -0.292504
H     1.460670   -1.137099    0.013077    0.374220   -0.548981    0.142459
H     0.742683   -2.541004   -0.501825    0.641905   -0.293546    0.474762
O    -0.793592    0.347649   -0.269584    0.000401   -0.015449    0.002362
10
* Frequency(17) 1355.5058
C    -2.042869   -1.597383   -0.037496    0.178841    0.124576   -0.006069
C    -0.802122   -0.843315   -0.094107   -0.004053   -0.007155    0.000679
H    -3.042765   -1.093928   -0.113304   -0.382853   -0.568601    0.022659
H    -2.324987   -2.307738    0.807325   -0.660385   -0.417149   -0.375614
H    -2.301976   -2.448560   -0.750679   -0.695052   -0.328702    0.413769
C     0.432816   -1.597042    0.072880   -0.171794    0.120736   -0.030111
H     0.676118   -2.206611    1.003500    0.680114   -0.435614   -0.292504
H     1.437087   -1.102503    0.004100    0.374220   -0.548981    0.142459
H     0.702231   -2.522506   -0.531743    0.641905   -0.293546    0.474762
O    -0.793617    0.348622   -0.269733    0.000401   -0.015449    0.002362
10
* Frequency(17) 1355.5058
C    -2.059130   -1.608710   -0.036944    0.178841    0.124576   -0.006069
C    -0.801754   -0.842664   -0.094169   -0.004053   -0.007155    0.000679
H    -3.007955   -1.042229   -0.115364   -0.382853   -0.568601    0.022659
H    -2.264944   -2.269810    0.841477   -0.660385   -0.417149   -0.375614
H    -2.238780   -2.418674   -0.788300   -0.695052   -0.328702    0.413769
C     0.448436   -1.608020    0.075617   -0.171794    0.120736   -0.030111
H     0.614281   -2.167004    1.030095    0.680114   -0.435614   -0.292504
H     1.403062   -1.052589   -0.008853    0.374220   -0.548981    0.142459
H     0.643868   -2.495816   -0.574909    0.641905   -0.293546    0.474762
O    -0.793654    0.350027   -0.269948    0.000401   -0.015449    0.002362
10
* Frequency(17) 1355.5058
C    -2.078619   -1.622285   -0.036283    0.178841    0.124576   -0.006069
C    -0.801312   -0.841884   -0.094243   -0.004053   -0.007155    0.000679
H    -2.966234   -0.980267   -0.117834   -0.382853   -0.568601    0.022659
H    -2.192980   -2.224351    0.882409   -0.660385   -0.417149   -0.375614
H    -2.163038   -2.382854   -0.833390   -0.695052   -0.328702    0.413769
C     0.467157   -1.621177    0.078899   -0.171794    0.120736   -0.030111
H     0.540166   -2.119534    1.061971    0.680114   -0.435614   -0.292504
H     1.362282   -0.992764   -0.024377    0.374220   -0.548981    0.142459
H     0.573918   -2.463827   -0.626646    0.641905   -0.293546    0.474762
O    -0.793697    0.351710   -0.270205    0.000401   -0.015449    0.002362
10
* Frequency(17) 1355.5058
C    -2.099224   -1.636638   -0.035584    0.178841    0.124576   -0.006069
C    -0.800845   -0.841060   -0.094321   -0.004053   -0.007155    0.000679
H    -2.922124   -0.914755   -0.120444   -0.382853   -0.568601    0.022659
H    -2.116893   -2.176289    0.925685   -0.660385   -0.417149   -0.375614
H    -2.082957   -2.344982   -0.881063   -0.695052   -0.328702    0.413769
C     0.486951   -1.635087    0.082368   -0.171794    0.120736   -0.030111
H     0.461806   -2.069344    1.095672    0.680114   -0.435614   -0.292504
H     1.319166   -0.929513   -0.040791    0.374220   -0.548981    0.142459
H     0.499960   -2.430006   -0.681346    0.641905   -0.293546    0.474762
O    -0.793744    0.353490   -0.270477    0.000401   -0.015449    0.002362
10
* Frequency(17) 1355.5058
C    -2.118713   -1.650214   -0.034922    0.178841    0.124576   -0.006069
C    -0.800403   -0.840280   -0.094395   -0.004053   -0.007155    0.000679
H    -2.880403   -0.852793   -0.122913   -0.382853   -0.568601    0.022659
H    -2.044928   -2.130831    0.966617   -0.660385   -0.417149   -0.375614
H    -2.007215   -2.309163   -0.926152   -0.695052   -0.328702    0.413769
C     0.505671   -1.648244    0.085649   -0.171794    0.120736   -0.030111
H     0.387692   -2.021874    1.127547    0.680114   -0.435614   -0.292504
H     1.278386   -0.869688   -0.056315    0.374220   -0.548981    0.142459
H     0.430009   -2.398017   -0.733083    0.641905   -0.293546    0.474762
O    -0.793787    0.355174   -0.270735    0.000401   -0.015449    0.002362
10
* Frequency(17) 1355.5058
C    -2.134974   -1.661540   -0.034370    0.178841    0.124576   -0.006069
C    -0.800035   -0.839630   -0.094457   -0.004053   -0.007155    0.000679
H    -2.845593   -0.801095   -0.124974   -0.382853   -0.568601    0.022659
H    -1.984885   -2.092903    1.000769   -0.660385   -0.417149   -0.375614
H    -1.944019   -2.279276   -0.963773   -0.695052   -0.328702    0.413769
C     0.521291   -1.659222    0.088387   -0.171794    0.120736   -0.030111
H     0.325854   -1.982267    1.154142    0.680114   -0.435614   -0.292504
H     1.244361   -0.819774   -0.069268    0.374220   -0.548981    0.142459
H     0.371646   -2.371328   -0.776249    0.641905   -0.293546    0.474762
O    -0.793824    0.356578   -0.270949    0.000401   -0.015449    0.002362
10
* Frequency(17) 1355.5058
C    -2.146244   -1.669391   -0.033988    0.178841    0.124576   -0.006069
C    -0.799779   -0.839179   -0.094499   -0.004053   -0.007155    0.000679
H    -2.821467   -0.765263   -0.126402   -0.382853   -0.568601    0.022659
H    -1.943269   -2.066615    1.024439   -0.660385   -0.417149   -0.375614
H    -1.900219   -2.258563   -0.989848   -0.695052   -0.328702    0.413769
C     0.532117   -1.666830    0.090284   -0.171794    0.120736   -0.030111
H     0.282995   -1.954816    1.172575    0.680114   -0.435614   -0.292504
H     1.220779   -0.785179   -0.078245    0.374220   -0.548981    0.142459
H     0.331195   -2.352829   -0.806167    0.641905   -0.293546    0.474762
O    -0.793849    0.357552   -0.271098    0.000401   -0.015449    0.002362
10
* Frequency(17) 1355.5058
C    -2.151302   -1.672914   -0.033816    0.178841    0.124576   -0.006069
C    -0.799665   -0.838977   -0.094519   -0.004053   -0.007155    0.000679
H    -2.810638   -0.749181   -0.127042   -0.382853   -0.568601    0.022659
H    -1.924591   -2.054817    1.035063   -0.660385   -0.417149   -0.375614
H    -1.880560   -2.249266   -1.001551   -0.695052   -0.328702    0.413769
C     0.536976   -1.670245    0.091136   -0.171794    0.120736   -0.030111
H     0.263759   -1.942495    1.180848    0.680114   -0.435614   -0.292504
H     1.210194   -0.769651   -0.082274    0.374220   -0.548981    0.142459
H     0.313040   -2.344526   -0.819595    0.641905   -0.293546    0.474762
O    -0.793861    0.357989   -0.271165    0.000401   -0.015449    0.002362
10
* Frequency(17) 1355.5058
C    -2.149600   -1.671729   -0.033874    0.178841    0.124576   -0.006069
C    -0.799703   -0.839045   -0.094512   -0.004053   -0.007155    0.000679
H    -2.814281   -0.754591   -0.126827   -0.382853   -0.568601    0.022659
H    -1.930874   -2.058786    1.031489   -0.660385   -0.417149   -0.375614
H    -1.887173   -2.252393   -0.997614   -0.695052   -0.328702    0.413769
C     0.535342   -1.669096    0.090850   -0.171794    0.120736   -0.030111
H     0.270230   -1.946640    1.178065    0.680114   -0.435614   -0.292504
H     1.213755   -0.774875   -0.080919    0.374220   -0.548981    0.142459
H     0.319147   -2.347319   -0.815078    0.641905   -0.293546    0.474762
O    -0.793857    0.357842   -0.271142    0.000401   -0.015449    0.002362
10
* Frequency(17) 1355.5058
C    -2.141323   -1.665963   -0.034155    0.178841    0.124576   -0.006069
C    -0.799891   -0.839376   -0.094481   -0.004053   -0.007155    0.000679
H    -2.832000   -0.780906   -0.125778   -0.382853   -0.568601    0.022659
H    -1.961438   -2.078092    1.014105   -0.660385   -0.417149   -0.375614
H    -1.919342   -2.267606   -0.978464   -0.695052   -0.328702    0.413769
C     0.527391   -1.663509    0.089456   -0.171794    0.120736   -0.030111
H     0.301707   -1.966801    1.164527    0.680114   -0.435614   -0.292504
H     1.231074   -0.800283   -0.074326    0.374220   -0.548981    0.142459
H     0.348855   -2.360905   -0.793105    0.641905   -0.293546    0.474762
O    -0.793838    0.357127   -0.271033    0.000401   -0.015449    0.002362
10
* Frequency(17) 1355.5058
C    -2.127368   -1.656242   -0.034628    0.178841    0.124576   -0.006069
C    -0.800207   -0.839934   -0.094428   -0.004053   -0.007155    0.000679
H    -2.861876   -0.825276   -0.124010   -0.382853   -0.568601    0.022659
H    -2.012970   -2.110644    0.984794   -0.660385   -0.417149   -0.375614
H    -1.973579   -2.293256   -0.946176   -0.695052   -0.328702    0.413769
C     0.513985   -1.654087    0.087106   -0.171794    0.120736   -0.030111
H     0.354779   -2.000793    1.141702    0.680114   -0.435614   -0.292504
H     1.260276   -0.843122   -0.063209    0.374220   -0.548981    0.142459
H     0.398946   -2.383812   -0.756058    0.641905   -0.293546    0.474762
O    -0.793807    0.355921   -0.270849    0.000401   -0.015449    0.002362
10
* Frequency(17) 1355.5058
C    -2.109246   -1.643619   -0.035243    0.178841    0.124576   -0.006069
C    -0.800618   -0.840659   -0.094359   -0.004053   -0.007155    0.000679
H    -2.900670   -0.882893   -0.121714   -0.382853   -0.568601    0.022659
H    -2.079887   -2.152913    0.946733   -0.660385   -0.417149   -0.375614
H    -2.044008   -2.326563   -0.904249   -0.695052   -0.328702    0.413769
C     0.496577   -1.641853    0.084055   -0.171794    0.120736   -0.030111
H     0.423695   -2.044934    1.112063    0.680114   -0.435614   -0.292504
H     1.298196   -0.898750   -0.048774    0.374220   -0.548981    0.142459
H     0.463990   -2.413557   -0.707950    0.641905   -0.293546    0.474762
O    -0.793766    0.354356   -0.270610    0.000401   -0.015449    0.002362
10
* Frequency(17) 1355.5058
C    -2.088921   -1.629462   -0.035933    0.178841    0.124576   -0.006069
C    -0.801078   -0.841472   -0.094282   -0.004053   -0.007155    0.000679
H    -2.944179   -0.947511   -0.119139   -0.382853   -0.568601    0.022659
H    -2.154936   -2.200320    0.904047   -0.660385   -0.417149   -0.375614
H    -2.122997   -2.363918   -0.857226   -0.695052   -0.328702    0.413769
C     0.477054   -1.628132    0.080633   -0.171794    0.120736   -0.030111
H     0.500986   -2.094439    1.078821    0.680114   -0.435614   -0.292504
H     1.340724   -0.961139   -0.032584    0.374220   -0.548981    0.142459
H     0.536939   -2.446917   -0.653996    0.641905   -0.293546    0.474762
O    -0.793721    0.352600   -0.270341    0.000401   -0.015449    0.002362
