3
Coordinates from ORCA-job H2O_opt_BP86 E -76.456263262422
  O      -4.000000      0.000000      0.000000
  H      -2.973650      0.000000      0.000000
  H      -3.996500     -0.978550      0.311650
3
Coordinates from ORCA-job H2O_opt_BP86 E -76.463014910186
  O      -3.966020     -0.032599      0.010382
  H      -2.985020      0.021519     -0.006853
  H      -4.019110     -0.967470      0.308121
3
Coordinates from ORCA-job H2O_opt_BP86 E -76.464513746417
  O      -3.940882     -0.056515      0.017999
  H      -2.979615      0.050642     -0.016129
  H      -4.049653     -0.972677      0.309780
3
Coordinates from ORCA-job H2O_opt_BP86 E -76.464584368630
  O      -3.938208     -0.058975      0.018782
  H      -2.974422      0.058149     -0.018519
  H      -4.057521     -0.977724      0.311387
3
Coordinates from ORCA-job H2O_opt_BP86 E -76.464584494159
  O      -3.937891     -0.059293      0.018884
  H      -2.974351      0.058520     -0.018637
  H      -4.057908     -0.977777      0.311404
3
Coordinates from ORCA-job H2O_opt_BP86 E -76.464584495213
  O      -3.937887     -0.059292      0.018883
  H      -2.974353      0.058521     -0.018638
  H      -4.057910     -0.977779      0.311405
