3
* (null), Energy   -1000.0000000
O    -3.937887   -0.059292    0.018883   -0.070505    0.065721   -0.020931
H    -2.974353    0.058521   -0.018638    1.393271    0.268387   -0.085476
H    -4.057910   -0.977779    0.311405   -0.274218   -1.311513    0.417693
3
* Frequency(7) 3678.0223
O    -3.945900   -0.051823    0.016505   -0.070505    0.065721   -0.020931
H    -2.816015    0.089022   -0.028352    1.393271    0.268387   -0.085476
H    -4.089074   -1.126826    0.358873   -0.274218   -1.311513    0.417693
3
* Frequency(7) 3678.0223
O    -3.953044   -0.045164    0.014384   -0.070505    0.065721   -0.020931
H    -2.674835    0.116218   -0.037013    1.393271    0.268387   -0.085476
H    -4.116860   -1.259721    0.401198   -0.274218   -1.311513    0.417693
3
* Frequency(7) 3678.0223
O    -3.958546   -0.040035    0.012751   -0.070505    0.065721   -0.020931
H    -2.566113    0.137161   -0.043683    1.393271    0.268387   -0.085476
H    -4.138258   -1.362064    0.433792   -0.274218   -1.311513    0.417693
3
* Frequency(7) 3678.0223
O    -3.961809   -0.036994    0.011782   -0.070505    0.065721   -0.020931
H    -2.501630    0.149583   -0.047639    1.393271    0.268387   -0.085476
H    -4.150949   -1.422763    0.453124   -0.274218   -1.311513    0.417693
3
* Frequency(7) 3678.0223
O    -3.962480   -0.036368    0.011583   -0.070505    0.065721   -0.020931
H    -2.488373    0.152136   -0.048453    1.393271    0.268387   -0.085476
H    -4.153558   -1.435241    0.457098   -0.274218   -1.311513    0.417693
3
* Frequency(7) 3678.0223
O    -3.960485   -0.038227    0.012175   -0.070505    0.065721   -0.020931
H    -2.527781    0.144545   -0.046035    1.393271    0.268387   -0.085476
H    -4.145802   -1.398146    0.445284   -0.274218   -1.311513    0.417693
3
* Frequency(7) 3678.0223
O    -3.956042   -0.042369    0.013494   -0.070505    0.065721   -0.020931
H    -2.615581    0.127632   -0.040648    1.393271    0.268387   -0.085476
H    -4.128522   -1.315498    0.418962   -0.274218   -1.311513    0.417693
3
* Frequency(7) 3678.0223
O    -3.949632   -0.048344    0.015397   -0.070505    0.065721   -0.020931
H    -2.742259    0.103230   -0.032877    1.393271    0.268387   -0.085476
H    -4.103590   -1.196253    0.380984   -0.274218   -1.311513    0.417693
3
* Frequency(7) 3678.0223
O    -3.941949   -0.055506    0.017678   -0.070505    0.065721   -0.020931
H    -2.894089    0.073983   -0.023562    1.393271    0.268387   -0.085476
H    -4.073707   -1.053333    0.335467   -0.274218   -1.311513    0.417693
3
* Frequency(7) 3678.0223
O    -3.933826   -0.063078    0.020089   -0.070505    0.065721   -0.020931
H    -3.054616    0.043060   -0.013714    1.393271    0.268387   -0.085476
H    -4.042113   -0.902226    0.287342   -0.274218   -1.311513    0.417693
3
* Frequency(7) 3678.0223
O    -3.926142   -0.070240    0.022370   -0.070505    0.065721   -0.020931
H    -3.206446    0.013813   -0.004399    1.393271    0.268387   -0.085476
H    -4.012231   -0.759305    0.241825   -0.274218   -1.311513    0.417693
3
* Frequency(7) 3678.0223
O    -3.919732   -0.076216    0.024273   -0.070505    0.065721   -0.020931
H    -3.333125   -0.010589    0.003372    1.393271    0.268387   -0.085476
H    -3.987298   -0.640060    0.203847   -0.274218   -1.311513    0.417693
3
* Frequency(7) 3678.0223
O    -3.915289   -0.080357    0.025592   -0.070505    0.065721   -0.020931
H    -3.420925   -0.027502    0.008759    1.393271    0.268387   -0.085476
H    -3.970018   -0.557412    0.177525   -0.274218   -1.311513    0.417693
3
* Frequency(7) 3678.0223
O    -3.913295   -0.082216    0.026184   -0.070505    0.065721   -0.020931
H    -3.460332   -0.035093    0.011176    1.393271    0.268387   -0.085476
H    -3.962262   -0.520317    0.165711   -0.274218   -1.311513    0.417693
3
* Frequency(7) 3678.0223
O    -3.913966   -0.081591    0.025985   -0.070505    0.065721   -0.020931
H    -3.447076   -0.032540    0.010363    1.393271    0.268387   -0.085476
H    -3.964871   -0.532796    0.169686   -0.274218   -1.311513    0.417693
3
* Frequency(7) 3678.0223
O    -3.917229   -0.078549    0.025016   -0.070505    0.065721   -0.020931
H    -3.382593   -0.020118    0.006407    1.393271    0.268387   -0.085476
H    -3.977562   -0.593495    0.189017   -0.274218   -1.311513    0.417693
3
* Frequency(7) 3678.0223
O    -3.922730   -0.073421    0.023383   -0.070505    0.065721   -0.020931
H    -3.273870    0.000825   -0.000263    1.393271    0.268387   -0.085476
H    -3.998960   -0.695837    0.221611   -0.274218   -1.311513    0.417693
3
* Frequency(7) 3678.0223
O    -3.929875   -0.066761    0.021262   -0.070505    0.065721   -0.020931
H    -3.132691    0.028021   -0.008924    1.393271    0.268387   -0.085476
H    -4.026747   -0.828733    0.263936   -0.274218   -1.311513    0.417693
3
* Frequency(7) 3678.0223
O    -3.937887   -0.059292    0.018883   -0.070505    0.065721   -0.020931
H    -2.974353    0.058521   -0.018638    1.393271    0.268387   -0.085476
H    -4.057910   -0.977779    0.311405   -0.274218   -1.311513    0.417693
