3
* (null), Energy   -1000.0000000
O    -3.937887   -0.059292    0.018883    0.000000    0.000000    0.000000
H    -2.974353    0.058521   -0.018638    0.000000    0.000000    0.000000
H    -4.057910   -0.977779    0.311405    0.000000    0.000000    0.000000
3
* Frequency(5)    0.0000
O    -3.937887   -0.059292    0.018883    0.000000    0.000000    0.000000
H    -2.974353    0.058521   -0.018638    0.000000    0.000000    0.000000
H    -4.057910   -0.977779    0.311405    0.000000    0.000000    0.000000
3
* Frequency(5)    0.0000
O    -3.937887   -0.059292    0.018883    0.000000    0.000000    0.000000
H    -2.974353    0.058521   -0.018638    0.000000    0.000000    0.000000
H    -4.057910   -0.977779    0.311405    0.000000    0.000000    0.000000
3
* Frequency(5)    0.0000
O    -3.937887   -0.059292    0.018883    0.000000    0.000000    0.000000
H    -2.974353    0.058521   -0.018638    0.000000    0.000000    0.000000
H    -4.057910   -0.977779    0.311405    0.000000    0.000000    0.000000
3
* Frequency(5)    0.0000
O    -3.937887   -0.059292    0.018883    0.000000    0.000000    0.000000
H    -2.974353    0.058521   -0.018638    0.000000    0.000000    0.000000
H    -4.057910   -0.977779    0.311405    0.000000    0.000000    0.000000
3
* Frequency(5)    0.0000
O    -3.937887   -0.059292    0.018883    0.000000    0.000000    0.000000
H    -2.974353    0.058521   -0.018638    0.000000    0.000000    0.000000
H    -4.057910   -0.977779    0.311405    0.000000    0.000000    0.000000
3
* Frequency(5)    0.0000
O    -3.937887   -0.059292    0.018883    0.000000    0.000000    0.000000
H    -2.974353    0.058521   -0.018638    0.000000    0.000000    0.000000
H    -4.057910   -0.977779    0.311405    0.000000    0.000000    0.000000
3
* Frequency(5)    0.0000
O    -3.937887   -0.059292    0.018883    0.000000    0.000000    0.000000
H    -2.974353    0.058521   -0.018638    0.000000    0.000000    0.000000
H    -4.057910   -0.977779    0.311405    0.000000    0.000000    0.000000
3
* Frequency(5)    0.0000
O    -3.937887   -0.059292    0.018883    0.000000    0.000000    0.000000
H    -2.974353    0.058521   -0.018638    0.000000    0.000000    0.000000
H    -4.057910   -0.977779    0.311405    0.000000    0.000000    0.000000
3
* Frequency(5)    0.0000
O    -3.937887   -0.059292    0.018883    0.000000    0.000000    0.000000
H    -2.974353    0.058521   -0.018638    0.000000    0.000000    0.000000
H    -4.057910   -0.977779    0.311405    0.000000    0.000000    0.000000
3
* Frequency(5)    0.0000
O    -3.937887   -0.059292    0.018883    0.000000    0.000000    0.000000
H    -2.974353    0.058521   -0.018638    0.000000    0.000000    0.000000
H    -4.057910   -0.977779    0.311405    0.000000    0.000000    0.000000
3
* Frequency(5)    0.0000
O    -3.937887   -0.059292    0.018883    0.000000    0.000000    0.000000
H    -2.974353    0.058521   -0.018638    0.000000    0.000000    0.000000
H    -4.057910   -0.977779    0.311405    0.000000    0.000000    0.000000
3
* Frequency(5)    0.0000
O    -3.937887   -0.059292    0.018883    0.000000    0.000000    0.000000
H    -2.974353    0.058521   -0.018638    0.000000    0.000000    0.000000
H    -4.057910   -0.977779    0.311405    0.000000    0.000000    0.000000
3
* Frequency(5)    0.0000
O    -3.937887   -0.059292    0.018883    0.000000    0.000000    0.000000
H    -2.974353    0.058521   -0.018638    0.000000    0.000000    0.000000
H    -4.057910   -0.977779    0.311405    0.000000    0.000000    0.000000
3
* Frequency(5)    0.0000
O    -3.937887   -0.059292    0.018883    0.000000    0.000000    0.000000
H    -2.974353    0.058521   -0.018638    0.000000    0.000000    0.000000
H    -4.057910   -0.977779    0.311405    0.000000    0.000000    0.000000
3
* Frequency(5)    0.0000
O    -3.937887   -0.059292    0.018883    0.000000    0.000000    0.000000
H    -2.974353    0.058521   -0.018638    0.000000    0.000000    0.000000
H    -4.057910   -0.977779    0.311405    0.000000    0.000000    0.000000
3
* Frequency(5)    0.0000
O    -3.937887   -0.059292    0.018883    0.000000    0.000000    0.000000
H    -2.974353    0.058521   -0.018638    0.000000    0.000000    0.000000
H    -4.057910   -0.977779    0.311405    0.000000    0.000000    0.000000
3
* Frequency(5)    0.0000
O    -3.937887   -0.059292    0.018883    0.000000    0.000000    0.000000
H    -2.974353    0.058521   -0.018638    0.000000    0.000000    0.000000
H    -4.057910   -0.977779    0.311405    0.000000    0.000000    0.000000
3
* Frequency(5)    0.0000
O    -3.937887   -0.059292    0.018883    0.000000    0.000000    0.000000
H    -2.974353    0.058521   -0.018638    0.000000    0.000000    0.000000
H    -4.057910   -0.977779    0.311405    0.000000    0.000000    0.000000
3
* Frequency(5)    0.0000
O    -3.937887   -0.059292    0.018883    0.000000    0.000000    0.000000
H    -2.974353    0.058521   -0.018638    0.000000    0.000000    0.000000
H    -4.057910   -0.977779    0.311405    0.000000    0.000000    0.000000
