3
* (null), Energy   -1000.0000000
O    -3.922897   -0.073502    0.023409    0.000000    0.000000    0.000000
H    -2.990861    0.057022   -0.018160    0.000000    0.000000    0.000000
H    -4.056392   -0.962071    0.306402    0.000000    0.000000    0.000000
3
* Frequency(5)    0.0000
O    -3.922897   -0.073502    0.023409    0.000000    0.000000    0.000000
H    -2.990861    0.057022   -0.018160    0.000000    0.000000    0.000000
H    -4.056392   -0.962071    0.306402    0.000000    0.000000    0.000000
3
* Frequency(5)    0.0000
O    -3.922897   -0.073502    0.023409    0.000000    0.000000    0.000000
H    -2.990861    0.057022   -0.018160    0.000000    0.000000    0.000000
H    -4.056392   -0.962071    0.306402    0.000000    0.000000    0.000000
3
* Frequency(5)    0.0000
O    -3.922897   -0.073502    0.023409    0.000000    0.000000    0.000000
H    -2.990861    0.057022   -0.018160    0.000000    0.000000    0.000000
H    -4.056392   -0.962071    0.306402    0.000000    0.000000    0.000000
3
* Frequency(5)    0.0000
O    -3.922897   -0.073502    0.023409    0.000000    0.000000    0.000000
H    -2.990861    0.057022   -0.018160    0.000000    0.000000    0.000000
H    -4.056392   -0.962071    0.306402    0.000000    0.000000    0.000000
3
* Frequency(5)    0.0000
O    -3.922897   -0.073502    0.023409    0.000000    0.000000    0.000000
H    -2.990861    0.057022   -0.018160    0.000000    0.000000    0.000000
H    -4.056392   -0.962071    0.306402    0.000000    0.000000    0.000000
3
* Frequency(5)    0.0000
O    -3.922897   -0.073502    0.023409    0.000000    0.000000    0.000000
H    -2.990861    0.057022   -0.018160    0.000000    0.000000    0.000000
H    -4.056392   -0.962071    0.306402    0.000000    0.000000    0.000000
3
* Frequency(5)    0.0000
O    -3.922897   -0.073502    0.023409    0.000000    0.000000    0.000000
H    -2.990861    0.057022   -0.018160    0.000000    0.000000    0.000000
H    -4.056392   -0.962071    0.306402    0.000000    0.000000    0.000000
3
* Frequency(5)    0.0000
O    -3.922897   -0.073502    0.023409    0.000000    0.000000    0.000000
H    -2.990861    0.057022   -0.018160    0.000000    0.000000    0.000000
H    -4.056392   -0.962071    0.306402    0.000000    0.000000    0.000000
3
* Frequency(5)    0.0000
O    -3.922897   -0.073502    0.023409    0.000000    0.000000    0.000000
H    -2.990861    0.057022   -0.018160    0.000000    0.000000    0.000000
H    -4.056392   -0.962071    0.306402    0.000000    0.000000    0.000000
3
* Frequency(5)    0.0000
O    -3.922897   -0.073502    0.023409    0.000000    0.000000    0.000000
H    -2.990861    0.057022   -0.018160    0.000000    0.000000    0.000000
H    -4.056392   -0.962071    0.306402    0.000000    0.000000    0.000000
3
* Frequency(5)    0.0000
O    -3.922897   -0.073502    0.023409    0.000000    0.000000    0.000000
H    -2.990861    0.057022   -0.018160    0.000000    0.000000    0.000000
H    -4.056392   -0.962071    0.306402    0.000000    0.000000    0.000000
3
* Frequency(5)    0.0000
O    -3.922897   -0.073502    0.023409    0.000000    0.000000    0.000000
H    -2.990861    0.057022   -0.018160    0.000000    0.000000    0.000000
H    -4.056392   -0.962071    0.306402    0.000000    0.000000    0.000000
3
* Frequency(5)    0.0000
O    -3.922897   -0.073502    0.023409    0.000000    0.000000    0.000000
H    -2.990861    0.057022   -0.018160    0.000000    0.000000    0.000000
H    -4.056392   -0.962071    0.306402    0.000000    0.000000    0.000000
3
* Frequency(5)    0.0000
O    -3.922897   -0.073502    0.023409    0.000000    0.000000    0.000000
H    -2.990861    0.057022   -0.018160    0.000000    0.000000    0.000000
H    -4.056392   -0.962071    0.306402    0.000000    0.000000    0.000000
3
* Frequency(5)    0.0000
O    -3.922897   -0.073502    0.023409    0.000000    0.000000    0.000000
H    -2.990861    0.057022   -0.018160    0.000000    0.000000    0.000000
H    -4.056392   -0.962071    0.306402    0.000000    0.000000    0.000000
3
* Frequency(5)    0.0000
O    -3.922897   -0.073502    0.023409    0.000000    0.000000    0.000000
H    -2.990861    0.057022   -0.018160    0.000000    0.000000    0.000000
H    -4.056392   -0.962071    0.306402    0.000000    0.000000    0.000000
3
* Frequency(5)    0.0000
O    -3.922897   -0.073502    0.023409    0.000000    0.000000    0.000000
H    -2.990861    0.057022   -0.018160    0.000000    0.000000    0.000000
H    -4.056392   -0.962071    0.306402    0.000000    0.000000    0.000000
3
* Frequency(5)    0.0000
O    -3.922897   -0.073502    0.023409    0.000000    0.000000    0.000000
H    -2.990861    0.057022   -0.018160    0.000000    0.000000    0.000000
H    -4.056392   -0.962071    0.306402    0.000000    0.000000    0.000000
3
* Frequency(5)    0.0000
O    -3.922897   -0.073502    0.023409    0.000000    0.000000    0.000000
H    -2.990861    0.057022   -0.018160    0.000000    0.000000    0.000000
H    -4.056392   -0.962071    0.306402    0.000000    0.000000    0.000000
