3
* (null), Energy   -1000.0000000
O    -3.922897   -0.073502    0.023409   -0.100544   -0.096124    0.030614
H    -2.990861    0.057022   -0.018160    1.396039    0.195541   -0.062276
H    -4.056392   -0.962071    0.306402    0.199797    1.330149   -0.423628
3
* Frequency(8) 4211.9627
O    -3.934323   -0.084426    0.026888   -0.100544   -0.096124    0.030614
H    -2.832208    0.079244   -0.025238    1.396039    0.195541   -0.062276
H    -4.033686   -0.810906    0.258259    0.199797    1.330149   -0.423628
3
* Frequency(8) 4211.9627
O    -3.944511   -0.094166    0.029990   -0.100544   -0.096124    0.030614
H    -2.690748    0.099058   -0.031548    1.396039    0.195541   -0.062276
H    -4.013441   -0.676123    0.215332    0.199797    1.330149   -0.423628
3
* Frequency(8) 4211.9627
O    -3.952357   -0.101667    0.032379   -0.100544   -0.096124    0.030614
H    -2.581810    0.114317   -0.036408    1.396039    0.195541   -0.062276
H    -3.997850   -0.572326    0.182275    0.199797    1.330149   -0.423628
3
* Frequency(8) 4211.9627
O    -3.957010   -0.106116    0.033796   -0.100544   -0.096124    0.030614
H    -2.517199    0.123367   -0.039290    1.396039    0.195541   -0.062276
H    -3.988603   -0.510764    0.162669    0.199797    1.330149   -0.423628
3
* Frequency(8) 4211.9627
O    -3.957967   -0.107030    0.034087   -0.100544   -0.096124    0.030614
H    -2.503916    0.125228   -0.039883    1.396039    0.195541   -0.062276
H    -3.986702   -0.498109    0.158638    0.199797    1.330149   -0.423628
3
* Frequency(8) 4211.9627
O    -3.955123   -0.104311    0.033221   -0.100544   -0.096124    0.030614
H    -2.543402    0.119697   -0.038121    1.396039    0.195541   -0.062276
H    -3.992353   -0.535730    0.170620    0.199797    1.330149   -0.423628
3
* Frequency(8) 4211.9627
O    -3.948787   -0.098254    0.031292   -0.100544   -0.096124    0.030614
H    -2.631376    0.107375   -0.034197    1.396039    0.195541   -0.062276
H    -4.004944   -0.619553    0.197316    0.199797    1.330149   -0.423628
3
* Frequency(8) 4211.9627
O    -3.939646   -0.089514    0.028509   -0.100544   -0.096124    0.030614
H    -2.758306    0.089596   -0.028535    1.396039    0.195541   -0.062276
H    -4.023110   -0.740492    0.235833    0.199797    1.330149   -0.423628
3
* Frequency(8) 4211.9627
O    -3.928689   -0.079039    0.025172   -0.100544   -0.096124    0.030614
H    -2.910438    0.068287   -0.021748    1.396039    0.195541   -0.062276
H    -4.044882   -0.885443    0.281997    0.199797    1.330149   -0.423628
3
* Frequency(8) 4211.9627
O    -3.917105   -0.067964    0.021645   -0.100544   -0.096124    0.030614
H    -3.071284    0.045757   -0.014573    1.396039    0.195541   -0.062276
H    -4.067902   -1.038698    0.330806    0.199797    1.330149   -0.423628
3
* Frequency(8) 4211.9627
O    -3.906148   -0.057489    0.018309   -0.100544   -0.096124    0.030614
H    -3.223415    0.024449   -0.007786    1.396039    0.195541   -0.062276
H    -4.089675   -1.183649    0.376970    0.199797    1.330149   -0.423628
3
* Frequency(8) 4211.9627
O    -3.897006   -0.048749    0.015526   -0.100544   -0.096124    0.030614
H    -3.350346    0.006670   -0.002124    1.396039    0.195541   -0.062276
H    -4.107841   -1.304588    0.415487    0.199797    1.330149   -0.423628
3
* Frequency(8) 4211.9627
O    -3.890670   -0.042692    0.013597   -0.100544   -0.096124    0.030614
H    -3.438320   -0.005653    0.001800    1.396039    0.195541   -0.062276
H    -4.120432   -1.388411    0.442183    0.199797    1.330149   -0.423628
3
* Frequency(8) 4211.9627
O    -3.887827   -0.039973    0.012731   -0.100544   -0.096124    0.030614
H    -3.477806   -0.011184    0.003562    1.396039    0.195541   -0.062276
H    -4.126083   -1.426032    0.454165    0.199797    1.330149   -0.423628
3
* Frequency(8) 4211.9627
O    -3.888783   -0.040888    0.013022   -0.100544   -0.096124    0.030614
H    -3.464523   -0.009323    0.002969    1.396039    0.195541   -0.062276
H    -4.124182   -1.413377    0.450134    0.199797    1.330149   -0.423628
3
* Frequency(8) 4211.9627
O    -3.893437   -0.045336    0.014439   -0.100544   -0.096124    0.030614
H    -3.399912   -0.000273    0.000087    1.396039    0.195541   -0.062276
H    -4.114935   -1.351815    0.430528    0.199797    1.330149   -0.423628
3
* Frequency(8) 4211.9627
O    -3.901282   -0.052837    0.016828   -0.100544   -0.096124    0.030614
H    -3.290974    0.014986   -0.004773    1.396039    0.195541   -0.062276
H    -4.099344   -1.248018    0.397471    0.199797    1.330149   -0.423628
3
* Frequency(8) 4211.9627
O    -3.911470   -0.062578    0.019930   -0.100544   -0.096124    0.030614
H    -3.149513    0.034800   -0.011083    1.396039    0.195541   -0.062276
H    -4.079098   -1.113235    0.354545    0.199797    1.330149   -0.423628
3
* Frequency(8) 4211.9627
O    -3.922897   -0.073502    0.023409   -0.100544   -0.096124    0.030614
H    -2.990861    0.057022   -0.018160    1.396039    0.195541   -0.062276
H    -4.056392   -0.962071    0.306402    0.199797    1.330149   -0.423628
