3
* (null), Energy   -1000.0000000
O    -3.922897   -0.073502    0.023409   -0.069978    0.066484   -0.021174
H    -2.990861    0.057022   -0.018160    1.384311    0.265538   -0.084569
H    -4.056392   -0.962071    0.306402   -0.273613   -1.320777    0.420643
3
* Frequency(7) 4110.0159
O    -3.930849   -0.065946    0.021003   -0.069978    0.066484   -0.021174
H    -2.833541    0.087199   -0.027771    1.384311    0.265538   -0.084569
H    -4.087487   -1.112170    0.354205   -0.273613   -1.320777    0.420643
3
* Frequency(7) 4110.0159
O    -3.937940   -0.059209    0.018857   -0.069978    0.066484   -0.021174
H    -2.693269    0.114106   -0.036341    1.384311    0.265538   -0.084569
H    -4.115212   -1.246004    0.396829   -0.273613   -1.320777    0.420643
3
* Frequency(7) 4110.0159
O    -3.943401   -0.054021    0.017205   -0.069978    0.066484   -0.021174
H    -2.585246    0.134827   -0.042940    1.384311    0.265538   -0.084569
H    -4.136563   -1.349069    0.429653   -0.273613   -1.320777    0.420643
3
* Frequency(7) 4110.0159
O    -3.946640   -0.050944    0.016225   -0.069978    0.066484   -0.021174
H    -2.521178    0.147117   -0.046854    1.384311    0.265538   -0.084569
H    -4.149227   -1.410197    0.449122   -0.273613   -1.320777    0.420643
3
* Frequency(7) 4110.0159
O    -3.947305   -0.050312    0.016023   -0.069978    0.066484   -0.021174
H    -2.508007    0.149643   -0.047659    1.384311    0.265538   -0.084569
H    -4.151830   -1.422764    0.453124   -0.273613   -1.320777    0.420643
3
* Frequency(7) 4110.0159
O    -3.945326   -0.052192    0.016622   -0.069978    0.066484   -0.021174
H    -2.547161    0.142133   -0.045267    1.384311    0.265538   -0.084569
H    -4.144091   -1.385407    0.441226   -0.273613   -1.320777    0.420643
3
* Frequency(7) 4110.0159
O    -3.940916   -0.056382    0.017957   -0.069978    0.066484   -0.021174
H    -2.634396    0.125399   -0.039937    1.384311    0.265538   -0.084569
H    -4.126849   -1.302175    0.414719   -0.273613   -1.320777    0.420643
3
* Frequency(7) 4110.0159
O    -3.934554   -0.062427    0.019882   -0.069978    0.066484   -0.021174
H    -2.760260    0.101256   -0.032248    1.384311    0.265538   -0.084569
H    -4.101971   -1.182088    0.376473   -0.273613   -1.320777    0.420643
3
* Frequency(7) 4110.0159
O    -3.926928   -0.069672    0.022189   -0.069978    0.066484   -0.021174
H    -2.911113    0.072319   -0.023032    1.384311    0.265538   -0.084569
H    -4.072155   -1.038158    0.330634   -0.273613   -1.320777    0.420643
3
* Frequency(7) 4110.0159
O    -3.918865   -0.077332    0.024629   -0.069978    0.066484   -0.021174
H    -3.070608    0.041725   -0.013289    1.384311    0.265538   -0.084569
H    -4.040630   -0.885983    0.282169   -0.273613   -1.320777    0.420643
3
* Frequency(7) 4110.0159
O    -3.911240   -0.084577    0.026936   -0.069978    0.066484   -0.021174
H    -3.221462    0.012788   -0.004073    1.384311    0.265538   -0.084569
H    -4.010814   -0.742053    0.236330   -0.273613   -1.320777    0.420643
3
* Frequency(7) 4110.0159
O    -3.904877   -0.090621    0.028861   -0.069978    0.066484   -0.021174
H    -3.347325   -0.011355    0.003616    1.384311    0.265538   -0.084569
H    -3.985936   -0.621966    0.198085   -0.273613   -1.320777    0.420643
3
* Frequency(7) 4110.0159
O    -3.900467   -0.094811    0.030196   -0.069978    0.066484   -0.021174
H    -3.434561   -0.028088    0.008946    1.384311    0.265538   -0.084569
H    -3.968694   -0.538734    0.171577   -0.273613   -1.320777    0.420643
3
* Frequency(7) 4110.0159
O    -3.898488   -0.096692    0.030794   -0.069978    0.066484   -0.021174
H    -3.473715   -0.035599    0.011338    1.384311    0.265538   -0.084569
H    -3.960955   -0.501377    0.159679   -0.273613   -1.320777    0.420643
3
* Frequency(7) 4110.0159
O    -3.899154   -0.096059    0.030593   -0.069978    0.066484   -0.021174
H    -3.460544   -0.033072    0.010533    1.384311    0.265538   -0.084569
H    -3.963558   -0.513944    0.163682   -0.273613   -1.320777    0.420643
3
* Frequency(7) 4110.0159
O    -3.902392   -0.092982    0.029613   -0.069978    0.066484   -0.021174
H    -3.396475   -0.020783    0.006619    1.384311    0.265538   -0.084569
H    -3.976222   -0.575072    0.183150   -0.273613   -1.320777    0.420643
3
* Frequency(7) 4110.0159
O    -3.907853   -0.087794    0.027961   -0.069978    0.066484   -0.021174
H    -3.288452   -0.000062    0.000020    1.384311    0.265538   -0.084569
H    -3.997573   -0.678137    0.215974   -0.273613   -1.320777    0.420643
3
* Frequency(7) 4110.0159
O    -3.914944   -0.081057    0.025815   -0.069978    0.066484   -0.021174
H    -3.148181    0.026845   -0.008550    1.384311    0.265538   -0.084569
H    -4.025298   -0.811971    0.258598   -0.273613   -1.320777    0.420643
3
* Frequency(7) 4110.0159
O    -3.922897   -0.073502    0.023409   -0.069978    0.066484   -0.021174
H    -2.990861    0.057022   -0.018160    1.384311    0.265538   -0.084569
H    -4.056392   -0.962071    0.306402   -0.273613   -1.320777    0.420643
